2
# Box:   30.0000   30.0000   30.0000
H        14.611769676    14.880000114    14.639999390     0.000000000     0.000000000     0.000000000
H        18.058229446    14.880000114    14.639999390    -0.000000000     0.000000000     0.000000000
2
# Box:   30.0000   30.0000   30.0000
H        14.577570915    14.880000114    14.639999390    -0.000000000     0.000000000     0.000000000
H        18.092428207    14.880000114    14.639999390     0.000000000     0.000000000     0.000000000
2
# Box:   30.0000   30.0000   30.0000
H        14.565590858    14.880000114    14.639999390     0.000000000     0.000000000     0.000000000
H        18.104408264    14.880000114    14.639999390    -0.000000000     0.000000000     0.000000000
2
# Box:   30.0000   30.0000   30.0000
H        14.549969673    14.880000114    14.639999390     0.000000000     0.000000000     0.000000000
H        18.120031357    14.880000114    14.639999390    -0.000000000     0.000000000     0.000000000
2
# Box:   30.0000   30.0000   30.0000
H        14.506554604    14.880000114    14.639999390    -0.000000000     0.000000000     0.000000000
H        18.163444519    14.880000114    14.639999390     0.000000000     0.000000000     0.000000000
2
# Box:   30.0000   30.0000   30.0000
H        14.471216202    14.880000114    14.639999390    -0.000000000     0.000000000     0.000000000
H        18.198783875    14.880000114    14.639999390     0.000000000     0.000000000     0.000000000
2
# Box:   30.0000   30.0000   30.0000
H        14.440384865    14.880000114    14.639999390     0.000000000     0.000000000     0.000000000
H        18.229648590    14.880000114    14.639999390    -0.000000000     0.000000000     0.000000000
2
# Box:   30.0000   30.0000   30.0000
H        14.409313202    14.880000114    14.639999390     0.000000000     0.000000000     0.000000000
H        18.260686874    14.880000114    14.639999390    -0.000000000     0.000000000     0.000000000
2
# Box:   30.0000   30.0000   30.0000
H         3.305564880    14.880000114    14.639999390     0.000000000     0.000000000     0.000000000
H        29.364482880    14.880000114    14.639999390    -0.000000000     0.000000000     0.000000000
2
# Box:   30.0000   30.0000   30.0000
H        14.321566582    14.880000114    14.639999390     0.000000000     0.000000000     0.000000000
H        18.348432541    14.880000114    14.639999390    -0.000000000     0.000000000     0.000000000
2
# Box:   30.0000   30.0000   30.0000
H         3.389010191    14.880000114    14.639999390     0.000000000     0.000000000     0.000000000
H        29.281042099    14.880000114    14.639999390    -0.000000000     0.000000000     0.000000000
2
# Box:   30.0000   30.0000   30.0000
H        14.252900124    14.880000114    14.639999390    -0.000000000     0.000000000     0.000000000
H        18.417098999    14.880000114    14.639999390     0.000000000     0.000000000     0.000000000
2
# Box:   30.0000   30.0000   30.0000
H        14.611769676    14.880000114    14.639999390     0.000000000     0.000000000     0.000000000
H        18.058229446    14.880000114    14.639999390    -0.000000000     0.000000000     0.000000000
