4
# Step: 0 Box:    8.0000    8.0000    8.0000 
H         2.254236152    -0.695346984     0.398623652    -0.001440827     0.001469848     0.001240544
H         3.048582606    -0.206292233     0.252444076     0.000467065    -0.000807548    -0.000712656
H         2.830011153     0.526911238     0.919338282     0.000375419     0.000053546    -0.001091867
H         1.928049007     0.215452148     0.894392019     0.000598344    -0.000715846     0.000563979
4
# Step: 1 Box:    8.0000    8.0000    8.0000 
H         2.115931204    -0.552682397     0.536973774    -0.000022489     0.001326381     0.000780489
H         3.076228450    -0.251842469     0.196019453    -0.001291235    -0.000671562     0.000017384
H         2.927193006     0.503739346     0.783449185     0.000746226    -0.000289012    -0.001116795
H         1.941526368     0.141509689     0.948355617     0.000567500    -0.000365807     0.000318922
4
# Step: 2 Box:    8.0000    8.0000    8.0000 
H         2.107676182    -0.460435096     0.613927863    -0.001093543     0.000051595     0.001005711
H         2.938577289    -0.353211136     0.162990947    -0.000264451    -0.000632221    -0.000820494
H         2.933831372     0.480791717     0.709919706     0.000396642    -0.000133625    -0.000725080
H         2.080794293     0.173578684     0.977959513     0.000961352     0.000714250     0.000539864
4
# Step: 3 Box:    8.0000    8.0000    8.0000 
H         2.005880134    -0.521290155     0.686645667    -0.000015619    -0.000759509     0.000051891
H         2.870912526    -0.372445403     0.121183738    -0.001491676    -0.000305803     0.000023133
H         3.062758558     0.456664525     0.587543491     0.000616376    -0.000398512    -0.000733459
H         2.121328029     0.277795202     1.069425134     0.000890920     0.001463823     0.000658435
4
# Step: 4 Box:    8.0000    8.0000    8.0000 
H         2.022867020    -0.592017771     0.715625557    -0.000125357    -0.000706954     0.000784636
H         2.726813854    -0.442561326     0.054538655    -0.000951133    -0.000340008    -0.001023965
H         3.035917826     0.393289815     0.581525336     0.000420360    -0.000864509    -0.000406186
H         2.275280655     0.482013451     1.113108480     0.000656130     0.001911471     0.000645515
4
# Step: 5 Box:    8.0000    8.0000    8.0000 
H         2.026271423    -0.673936229     0.811411679     0.000473096    -0.000609217     0.000784651
H         2.580626907    -0.403395873     0.001002867    -0.001819904     0.000812235    -0.000026622
H         3.146356039     0.277701653     0.516510072     0.000086281    -0.000901467     0.000338451
H         2.307625096     0.640354619     1.135873410     0.001260529     0.000698450    -0.001096480
4
# Step: 6 Box:    8.0000    8.0000    8.0000 
H         2.105967921    -0.731215685     0.888590477     0.000719218    -0.000557507     0.000602844
H         2.374548767    -0.271933857     0.039144827    -0.001724974     0.001457298     0.000791599
H         3.111956865     0.150156847     0.576759948     0.000443252    -0.001980767    -0.000221268
H         2.468406021     0.693716864     0.960302777     0.000562505     0.001080976    -0.001173175
