2
# Box:   30.0000   30.0000   30.0000
H         3.422461033    15.406292915    15.340943336     0.000000000     0.000000000    -0.000000000
H        29.247510910    14.353708267    13.939056396    -0.000000000    -0.000000000     0.000000000
2
# Box:   30.0000   30.0000   30.0000
H         3.430865288    15.413980484    15.312517166     0.000000000     0.000000000    -0.000000000
H        29.239109039    14.346019745    13.967483521    -0.000000000    -0.000000000     0.000000000
2
# Box:   30.0000   30.0000   30.0000
H         3.435856819    15.420799255    15.282994270     0.000000000     0.000000000    -0.000000000
H        29.234115601    14.339200974    13.997005463    -0.000000000    -0.000000000     0.000000000
2
# Box:   30.0000   30.0000   30.0000
H         3.437402725    15.426730156    15.252418518    -0.000000000     0.000000000    -0.000000000
H        29.232570648    14.333271027    14.027581215     0.000000000    -0.000000000     0.000000000
2
# Box:   30.0000   30.0000   30.0000
H         3.435442448    15.431751251    15.220822334    -0.000000000     0.000000000    -0.000000000
H        29.234531403    14.328249931    14.059177399     0.000000000    -0.000000000     0.000000000
2
# Box:   30.0000   30.0000   30.0000
H         3.429883003    15.435825348    15.188230515    -0.000000000     0.000000000    -0.000000000
H        29.240091324    14.324174881    14.091769218     0.000000000    -0.000000000     0.000000000
2
# Box:   30.0000   30.0000   30.0000
H         3.420599461    15.438911438    15.154663086    -0.000000000     0.000000000    -0.000000000
H        29.249374390    14.321088791    14.125336647     0.000000000    -0.000000000     0.000000000
2
# Box:   30.0000   30.0000   30.0000
H         3.407427073    15.440956116    15.120140076    -0.000000000     0.000000000    -0.000000000
H        29.262546539    14.319044113    14.159859657     0.000000000    -0.000000000     0.000000000
2
# Box:   30.0000   30.0000   30.0000
H         3.390158415    15.441893578    15.084666252    -0.000000000     0.000000000    -0.000000000
H        29.279811859    14.318107605    14.195333481     0.000000000    -0.000000000     0.000000000
2
# Box:   30.0000   30.0000   30.0000
H         3.368537426    15.441637993    15.048251152    -0.000000000    -0.000000000    -0.000000000
H        29.301435471    14.318362236    14.231748581     0.000000000     0.000000000     0.000000000
2
# Box:   30.0000   30.0000   30.0000
H         3.342248201    15.440095901    15.010900497    -0.000000000    -0.000000000    -0.000000000
H        29.327726364    14.319905281    14.269099236     0.000000000     0.000000000     0.000000000
2
# Box:   30.0000   30.0000   30.0000
H         3.310908794    15.437141418    14.972618103    -0.000000000    -0.000000000    -0.000000000
H        29.359066010    14.322858810    14.307382584     0.000000000     0.000000000     0.000000000
2
# Box:   30.0000   30.0000   30.0000
H         3.274062634    15.432635307    14.933409691    -0.000000000    -0.000000000    -0.000000000
H        29.395912170    14.327364922    14.346590042     0.000000000     0.000000000     0.000000000
2
# Box:   30.0000   30.0000   30.0000
H         3.231177807    15.426407814    14.893291473    -0.000000000    -0.000000000    -0.000000000
H        29.438796997    14.333592415    14.386709213     0.000000000     0.000000000     0.000000000
2
# Box:   30.0000   30.0000   30.0000
H         3.181666851    15.418271065    14.852286339    -0.000000000    -0.000000000    -0.000000000
H        29.488304138    14.341730118    14.427713394     0.000000000     0.000000000     0.000000000
2
# Box:   30.0000   30.0000   30.0000
H         3.124964476    15.408035278    14.810458183    -0.000000000    -0.000000000    -0.000000000
H        29.545005798    14.351964951    14.469541550     0.000000000     0.000000000     0.000000000
2
# Box:   30.0000   30.0000   30.0000
H         3.060761452    15.395588875    14.767917633    -0.000000000    -0.000000000    -0.000000000
H        29.609210968    14.364412308    14.512082100     0.000000000     0.000000000     0.000000000
2
# Box:   30.0000   30.0000   30.0000
H         2.989648819    15.381080627    14.724859238    -0.000000000    -0.000000000    -0.000000000
H        29.680320740    14.378919601    14.555140495     0.000000000     0.000000000     0.000000000
2
# Box:   30.0000   30.0000   30.0000
H         2.914749622    15.365427017    14.681588173    -0.000000000    -0.000000000    -0.000000000
H        29.755220413    14.394574165    14.598411560     0.000000000     0.000000000     0.000000000
2
# Box:   30.0000   30.0000   30.0000
H         2.845203638    15.351428032    14.638396263    -0.000000000    -0.000000000    -0.000000000
H        29.824769974    14.408573151    14.641603470     0.000000000     0.000000000     0.000000000
2
# Box:   30.0000   30.0000   30.0000
H         2.799704075    15.344957352    14.595067978    -0.000000000    -0.000000000    -0.000000000
H        29.870265961    14.415043831    14.684932709     0.000000000     0.000000000     0.000000000
2
# Box:   30.0000   30.0000   30.0000
H         2.798164845    15.352453232    14.550322533     0.000000000     0.000000000    -0.000000000
H        29.871803284    14.407547951    14.729677200    -0.000000000    -0.000000000     0.000000000
2
# Box:   30.0000   30.0000   30.0000
H         2.839005232    15.373619080    14.503059387     0.000000000     0.000000000    -0.000000000
H        29.830963135    14.386382103    14.776940346    -0.000000000    -0.000000000     0.000000000
2
# Box:   30.0000   30.0000   30.0000
H         2.901335955    15.401817322    14.453950882     0.000000000     0.000000000    -0.000000000
H        29.768634796    14.358182907    14.826048851    -0.000000000    -0.000000000     0.000000000
2
# Box:   30.0000   30.0000   30.0000
H         2.967570066    15.431307793    14.404435158     0.000000000     0.000000000    -0.000000000
H        29.702398300    14.328693390    14.875564575    -0.000000000    -0.000000000     0.000000000
2
# Box:   30.0000   30.0000   30.0000
H         3.029556751    15.459358215    14.355548859     0.000000000     0.000000000    -0.000000000
H        29.640415192    14.300642014    14.924450874    -0.000000000    -0.000000000     0.000000000
2
# Box:   30.0000   30.0000   30.0000
H         3.084647655    15.485050201    14.307822227     0.000000000     0.000000000    -0.000000000
H        29.585321426    14.274950027    14.972177505    -0.000000000    -0.000000000     0.000000000
2
# Box:   30.0000   30.0000   30.0000
H         3.132439852    15.508220673    14.261480331     0.000000000     0.000000000    -0.000000000
H        29.537528992    14.251780510    15.018519402    -0.000000000    -0.000000000     0.000000000
2
# Box:   30.0000   30.0000   30.0000
H         3.173306227    15.528966904    14.216595650     0.000000000     0.000000000    -0.000000000
H        29.496665955    14.231033325    15.063404083    -0.000000000    -0.000000000     0.000000000
2
# Box:   30.0000   30.0000   30.0000
H         3.207826376    15.547476768    14.173171997     0.000000000     0.000000000    -0.000000000
H        29.462146759    14.212523460    15.106828690    -0.000000000    -0.000000000     0.000000000
2
# Box:   30.0000   30.0000   30.0000
H         3.236583471    15.563931465    14.131181717     0.000000000     0.000000000    -0.000000000
H        29.433391571    14.196069717    15.148818970    -0.000000000    -0.000000000     0.000000000
2
# Box:   30.0000   30.0000   30.0000
H         3.260101080    15.578502655    14.090591431     0.000000000     0.000000000    -0.000000000
H        29.409875870    14.181498528    15.189408302    -0.000000000    -0.000000000     0.000000000
2
# Box:   30.0000   30.0000   30.0000
H         3.278825045    15.591333389    14.051368713     0.000000000     0.000000000    -0.000000000
H        29.391153336    14.168667793    15.228631973    -0.000000000    -0.000000000     0.000000000
2
# Box:   30.0000   30.0000   30.0000
H         3.293126822    15.602546692    14.013483047     0.000000000     0.000000000    -0.000000000
H        29.376852036    14.157453537    15.266515732    -0.000000000    -0.000000000     0.000000000
2
# Box:   30.0000   30.0000   30.0000
H         3.303313255    15.612241745    13.976916313     0.000000000     0.000000000    -0.000000000
H        29.366664886    14.147758484    15.303083420    -0.000000000    -0.000000000     0.000000000
2
# Box:   30.0000   30.0000   30.0000
H         3.309636354    15.620499611    13.941645622     0.000000000     0.000000000    -0.000000000
H        29.360342026    14.139500618    15.338354111    -0.000000000    -0.000000000     0.000000000
2
# Box:   30.0000   30.0000   30.0000
H         3.312297344    15.627385139    13.907670975     0.000000000     0.000000000    -0.000000000
H        29.357681274    14.132615089    15.372328758    -0.000000000    -0.000000000     0.000000000
2
# Box:   30.0000   30.0000   30.0000
H         3.311457872    15.632947922    13.874992371    -0.000000000     0.000000000    -0.000000000
H        29.358520508    14.127053261    15.405007362     0.000000000    -0.000000000     0.000000000
2
# Box:   30.0000   30.0000   30.0000
H         3.307243586    15.637225151    13.843622208    -0.000000000     0.000000000    -0.000000000
H        29.362735748    14.122776031    15.436377525     0.000000000    -0.000000000     0.000000000
2
# Box:   30.0000   30.0000   30.0000
H         3.299746752    15.640240669    13.813573837    -0.000000000     0.000000000    -0.000000000
H        29.370231628    14.119759560    15.466424942     0.000000000    -0.000000000     0.000000000
2
# Box:   30.0000   30.0000   30.0000
H         3.289031029    15.642012596    13.784880638    -0.000000000     0.000000000    -0.000000000
H        29.380949020    14.117988586    15.495119095     0.000000000    -0.000000000     0.000000000
2
# Box:   30.0000   30.0000   30.0000
H         3.275133371    15.642542839    13.757580757    -0.000000000    -0.000000000    -0.000000000
H        29.394845963    14.117458344    15.522418976     0.000000000     0.000000000     0.000000000
2
# Box:   30.0000   30.0000   30.0000
H         3.258064032    15.641827583    13.731722832    -0.000000000    -0.000000000    -0.000000000
H        29.411916733    14.118173599    15.548276901     0.000000000     0.000000000     0.000000000
2
# Box:   30.0000   30.0000   30.0000
H         3.237807512    15.639848709    13.707369804    -0.000000000    -0.000000000    -0.000000000
H        29.432172775    14.120151520    15.572629929     0.000000000     0.000000000     0.000000000
2
# Box:   30.0000   30.0000   30.0000
H         3.214321375    15.636576653    13.684598923    -0.000000000    -0.000000000    -0.000000000
H        29.455657959    14.123424530    15.595399857     0.000000000     0.000000000     0.000000000
2
# Box:   30.0000   30.0000   30.0000
H         3.187536240    15.631980896    13.663509369    -0.000000000    -0.000000000    -0.000000000
H        29.482439041    14.128019333    15.616491318     0.000000000     0.000000000     0.000000000
2
# Box:   30.0000   30.0000   30.0000
H         3.157352448    15.626005173    13.644209862    -0.000000000    -0.000000000    -0.000000000
H        29.512624741    14.133996010    15.635789871     0.000000000     0.000000000     0.000000000
2
# Box:   30.0000   30.0000   30.0000
H         3.123637199    15.618582726    13.626841545    -0.000000000    -0.000000000    -0.000000000
H        29.546337128    14.141417503    15.653158188     0.000000000     0.000000000     0.000000000
2
# Box:   30.0000   30.0000   30.0000
H         3.086219788    15.609631538    13.611570358    -0.000000000    -0.000000000    -0.000000000
H        29.583751678    14.150369644    15.668429375     0.000000000     0.000000000     0.000000000
2
# Box:   30.0000   30.0000   30.0000
H         3.044887781    15.599050522    13.598598480    -0.000000000    -0.000000000    -0.000000000
H        29.625087738    14.160949707    15.681401253     0.000000000     0.000000000     0.000000000
2
# Box:   30.0000   30.0000   30.0000
H         2.999381065    15.586709976    13.588170052    -0.000000000    -0.000000000    -0.000000000
H        29.670591354    14.173290253    15.691829681     0.000000000     0.000000000     0.000000000
2
# Box:   30.0000   30.0000   30.0000
H         2.949388981    15.572466850    13.580579758    -0.000000000    -0.000000000    -0.000000000
H        29.720588684    14.187534332    15.699419975     0.000000000     0.000000000     0.000000000
2
# Box:   30.0000   30.0000   30.0000
H         2.894546509    15.556140900    13.576173782    -0.000000000    -0.000000000    -0.000000000
H        29.775432587    14.203859329    15.703825951     0.000000000     0.000000000     0.000000000
2
# Box:   30.0000   30.0000   30.0000
H         2.834448814    15.537538528    13.575354576    -0.000000000    -0.000000000     0.000000000
H        29.835533142    14.222461700    15.704645157     0.000000000     0.000000000    -0.000000000
2
# Box:   30.0000   30.0000   30.0000
H         2.768697500    15.516458511    13.578554153    -0.000000000    -0.000000000     0.000000000
H        29.901287079    14.243541718    15.701445580     0.000000000     0.000000000    -0.000000000
2
# Box:   30.0000   30.0000   30.0000
H         2.697036028    15.492753983    13.586131096    -0.000000000    -0.000000000     0.000000000
H        29.972942352    14.267246246    15.693868637     0.000000000     0.000000000    -0.000000000
2
# Box:   30.0000   30.0000   30.0000
H         2.619709969    15.466500282    13.598090172    -0.000000000    -0.000000000     0.000000000
H         0.050266407    14.293499947    15.681909561     0.000000000     0.000000000    -0.000000000
2
# Box:   30.0000   30.0000   30.0000
H         2.538387299    15.438423157    13.613272667    -0.000000000    -0.000000000     0.000000000
H         0.131589293    14.321577072    15.666727066     0.000000000     0.000000000    -0.000000000
2
# Box:   30.0000   30.0000   30.0000
H         2.458197355    15.410882950    13.627426147    -0.000000000    -0.000000000     0.000000000
H         0.211779252    14.349117279    15.652572632     0.000000000     0.000000000    -0.000000000
2
# Box:   30.0000   30.0000   30.0000
H         2.390574932    15.389308929    13.630115509    -0.000000000    -0.000000000    -0.000000000
H         0.279401809    14.370691299    15.649883270     0.000000000     0.000000000     0.000000000
2
# Box:   30.0000   30.0000   30.0000
H         2.350787640    15.381187439    13.606035233    -0.000000000     0.000000000    -0.000000000
H         0.319189191    14.378813744    15.673963547     0.000000000    -0.000000000     0.000000000
2
# Box:   30.0000   30.0000   30.0000
H         2.343007565    15.388850212    13.549431801     0.000000000     0.000000000    -0.000000000
H         0.326969057    14.371150970    15.730567932    -0.000000000    -0.000000000     0.000000000
2
# Box:   30.0000   30.0000   30.0000
H         2.354673624    15.406297684    13.471961021     0.000000000     0.000000000    -0.000000000
H         0.315302789    14.353703499    15.808038712    -0.000000000    -0.000000000     0.000000000
2
# Box:   30.0000   30.0000   30.0000
H         2.371883869    15.426587105    13.388248444     0.000000000     0.000000000    -0.000000000
H         0.298092395    14.333414078    15.891751289    -0.000000000    -0.000000000     0.000000000
2
# Box:   30.0000   30.0000   30.0000
H         2.387509108    15.446032524    13.306492805     0.000000000     0.000000000    -0.000000000
H         0.282467186    14.313968658    15.973506927    -0.000000000    -0.000000000     0.000000000
2
# Box:   30.0000   30.0000   30.0000
H         2.399109364    15.463313103    13.229846954     0.000000000     0.000000000    -0.000000000
H         0.270867437    14.296688080    16.050151825    -0.000000000    -0.000000000     0.000000000
2
# Box:   30.0000   30.0000   30.0000
H         2.406227112    15.478136063    13.159140587     0.000000000     0.000000000    -0.000000000
H         0.263749778    14.281864166    16.120859146    -0.000000000    -0.000000000     0.000000000
2
# Box:   30.0000   30.0000   30.0000
H         2.409088850    15.490584373    13.094311714     0.000000000     0.000000000    -0.000000000
H         0.260887921    14.269416809    16.185688019    -0.000000000    -0.000000000     0.000000000
2
# Box:   30.0000   30.0000   30.0000
H         2.408105612    15.500844955    13.035015106    -0.000000000     0.000000000    -0.000000000
H         0.261871070    14.259156227    16.244985580     0.000000000    -0.000000000     0.000000000
2
# Box:   30.0000   30.0000   30.0000
H         2.403698206    15.509127617    12.980834007    -0.000000000     0.000000000    -0.000000000
H         0.266278267    14.250873566    16.299165726     0.000000000    -0.000000000     0.000000000
2
# Box:   30.0000   30.0000   30.0000
H         2.396243811    15.515615463    12.931384087    -0.000000000     0.000000000    -0.000000000
H         0.273732722    14.244384766    16.348615646     0.000000000    -0.000000000     0.000000000
2
# Box:   30.0000   30.0000   30.0000
H         2.386063099    15.520471573    12.886318207    -0.000000000     0.000000000    -0.000000000
H         0.283913285    14.239529610    16.393682480     0.000000000    -0.000000000     0.000000000
2
# Box:   30.0000   30.0000   30.0000
H         2.373424768    15.523830414    12.845350266    -0.000000000     0.000000000    -0.000000000
H         0.296551615    14.236169815    16.434648514     0.000000000    -0.000000000     0.000000000
2
# Box:   30.0000   30.0000   30.0000
H         2.358551264    15.525806427    12.808242798    -0.000000000     0.000000000    -0.000000000
H         0.311425090    14.234194756    16.471755981     0.000000000    -0.000000000     0.000000000
2
# Box:   30.0000   30.0000   30.0000
H         2.341627121    15.526486397    12.774805069    -0.000000000     0.000000000    -0.000000000
H         0.328349531    14.233513832    16.505195618     0.000000000    -0.000000000     0.000000000
2
# Box:   30.0000   30.0000   30.0000
H         2.322803974    15.525950432    12.744884491    -0.000000000    -0.000000000    -0.000000000
H         0.347172439    14.234050751    16.535114288     0.000000000     0.000000000     0.000000000
2
# Box:   30.0000   30.0000   30.0000
H         2.302208185    15.524252892    12.718362808    -0.000000000    -0.000000000    -0.000000000
H         0.367767990    14.235748291    16.561637878     0.000000000     0.000000000     0.000000000
2
# Box:   30.0000   30.0000   30.0000
H         2.279943943    15.521442413    12.695158005    -0.000000000    -0.000000000    -0.000000000
H         0.390032470    14.238557816    16.584842682     0.000000000     0.000000000     0.000000000
2
# Box:   30.0000   30.0000   30.0000
H         2.256095648    15.517557144    12.675210953    -0.000000000    -0.000000000    -0.000000000
H         0.413880795    14.242444038    16.604787827     0.000000000     0.000000000     0.000000000
2
# Box:   30.0000   30.0000   30.0000
H         2.230732679    15.512622833    12.658493042    -0.000000000    -0.000000000    -0.000000000
H         0.439244062    14.247378349    16.621505737     0.000000000     0.000000000     0.000000000
2
# Box:   30.0000   30.0000   30.0000
H         2.203909397    15.506658554    12.645008087    -0.000000000    -0.000000000    -0.000000000
H         0.466067225    14.253341675    16.634990692     0.000000000     0.000000000     0.000000000
2
# Box:   30.0000   30.0000   30.0000
H         2.175668716    15.499671936    12.634777069    -0.000000000    -0.000000000    -0.000000000
H         0.494307697    14.260329247    16.645223618     0.000000000     0.000000000     0.000000000
2
# Box:   30.0000   30.0000   30.0000
H         2.146042585    15.491664886    12.627850533    -0.000000000    -0.000000000    -0.000000000
H         0.523933947    14.268336296    16.652149200     0.000000000     0.000000000     0.000000000
2
# Box:   30.0000   30.0000   30.0000
H         2.115051985    15.482626915    12.624310493    -0.000000000    -0.000000000    -0.000000000
H         0.554924846    14.277373314    16.655689240     0.000000000     0.000000000     0.000000000
2
# Box:   30.0000   30.0000   30.0000
H         2.082707644    15.472544670    12.624268532    -0.000000000    -0.000000000     0.000000000
H         0.587269008    14.287456512    16.655731201     0.000000000     0.000000000    -0.000000000
2
# Box:   30.0000   30.0000   30.0000
H         2.049012661    15.461389542    12.627870560    -0.000000000    -0.000000000     0.000000000
H         0.620964289    14.298610687    16.652128220     0.000000000     0.000000000    -0.000000000
2
# Box:   30.0000   30.0000   30.0000
H         2.013958931    15.449131012    12.635301590    -0.000000000    -0.000000000     0.000000000
H         0.656017959    14.310870171    16.644699097     0.000000000     0.000000000    -0.000000000
2
# Box:   30.0000   30.0000   30.0000
H         1.977531195    15.435716629    12.646791458    -0.000000000    -0.000000000     0.000000000
H         0.692445934    14.324283600    16.633207321     0.000000000     0.000000000    -0.000000000
2
# Box:   30.0000   30.0000   30.0000
H         1.939703703    15.421093941    12.662628174    -0.000000000    -0.000000000     0.000000000
H         0.730273604    14.338907242    16.617372513     0.000000000     0.000000000    -0.000000000
2
# Box:   30.0000   30.0000   30.0000
H         1.900442719    15.405186653    12.683152199    -0.000000000    -0.000000000     0.000000000
H         0.769534469    14.354814529    16.596847534     0.000000000     0.000000000    -0.000000000
2
# Box:   30.0000   30.0000   30.0000
H         1.859706879    15.387910843    12.708786011    -0.000000000    -0.000000000     0.000000000
H         0.810270011    14.372090340    16.571214676     0.000000000     0.000000000    -0.000000000
2
# Box:   30.0000   30.0000   30.0000
H         1.817450285    15.369159698    12.740022659    -0.000000000    -0.000000000     0.000000000
H         0.852526784    14.390840530    16.539976120     0.000000000     0.000000000    -0.000000000
2
# Box:   30.0000   30.0000   30.0000
H         1.773627400    15.348817825    12.777437210    -0.000000000    -0.000000000     0.000000000
H         0.896349609    14.411182404    16.502563477     0.000000000     0.000000000    -0.000000000
2
# Box:   30.0000   30.0000   30.0000
H         1.728208184    15.326771736    12.821638107    -0.000000000    -0.000000000     0.000000000
H         0.941768825    14.433229446    16.458360672     0.000000000     0.000000000    -0.000000000
2
# Box:   30.0000   30.0000   30.0000
H         1.681206703    15.302925110    12.873167038    -0.000000000    -0.000000000     0.000000000
H         0.988770068    14.457075119    16.406833649     0.000000000     0.000000000    -0.000000000
2
# Box:   30.0000   30.0000   30.0000
H         1.632746935    15.277297974    12.932138443    -0.000000000    -0.000000000     0.000000000
H         1.037230015    14.482703209    16.347862244     0.000000000     0.000000000    -0.000000000
2
# Box:   30.0000   30.0000   30.0000
H         1.583195925    15.250223160    12.997320175    -0.000000000    -0.000000000     0.000000000
H         1.086780787    14.509778023    16.282680511     0.000000000     0.000000000    -0.000000000
2
# Box:   30.0000   30.0000   30.0000
H         1.533410072    15.222834587    13.063849449    -0.000000000    -0.000000000     0.000000000
H         1.136566877    14.537166595    16.216150284     0.000000000     0.000000000    -0.000000000
2
# Box:   30.0000   30.0000   30.0000
H         1.484974623    15.197893143    13.119015694    -0.000000000    -0.000000000     0.000000000
H         1.185002208    14.562107086    16.160984039     0.000000000     0.000000000    -0.000000000
2
# Box:   30.0000   30.0000   30.0000
H         1.439699411    15.179849625    13.140991211    -0.000000000    -0.000000000    -0.000000000
H         1.230277777    14.580150604    16.139009476     0.000000000     0.000000000     0.000000000
2
# Box:   30.0000   30.0000   30.0000
H         1.397766590    15.171411514    13.114942551    -0.000000000    -0.000000000    -0.000000000
H         1.272210479    14.588589668    16.165058136     0.000000000     0.000000000     0.000000000
2
# Box:   30.0000   30.0000   30.0000
H         1.357453823    15.170030594    13.052148819    -0.000000000     0.000000000    -0.000000000
H         1.312523365    14.589969635    16.227851868     0.000000000    -0.000000000     0.000000000
2
# Box:   30.0000   30.0000   30.0000
H         1.317431450    15.171294212    12.975006104    -0.000000000     0.000000000    -0.000000000
H         1.352545619    14.588706970    16.304992676     0.000000000    -0.000000000     0.000000000
2
# Box:   30.0000   30.0000   30.0000
H         1.277446270    15.172557831    12.897935867    -0.000000000     0.000000000    -0.000000000
H         1.392530799    14.587442398    16.382062912     0.000000000    -0.000000000     0.000000000
2
# Box:   30.0000   30.0000   30.0000
H         1.237667561    15.172825813    12.826810837    -0.000000000    -0.000000000    -0.000000000
H         1.432309389    14.587174416    16.453187943     0.000000000     0.000000000     0.000000000
2
# Box:   30.0000   30.0000   30.0000
H         1.198297977    15.171863556    12.763294220    -0.000000000    -0.000000000    -0.000000000
H         1.471678615    14.588136673    16.516706467     0.000000000     0.000000000     0.000000000
2
# Box:   30.0000   30.0000   30.0000
H         1.159484148    15.169712067    12.707427979    -0.000000000    -0.000000000    -0.000000000
H         1.510492802    14.590288162    16.572572708     0.000000000     0.000000000     0.000000000
2
# Box:   30.0000   30.0000   30.0000
H         1.121318102    15.166486740    12.658723831    -0.000000000    -0.000000000    -0.000000000
H         1.548658848    14.593514442    16.621276855     0.000000000     0.000000000     0.000000000
2
# Box:   30.0000   30.0000   30.0000
H         1.083856583    15.162311554    12.616568565    -0.000000000    -0.000000000    -0.000000000
H         1.586120605    14.597688675    16.663431168     0.000000000     0.000000000     0.000000000
2
# Box:   30.0000   30.0000   30.0000
H         1.047134280    15.157304764    12.580384254    -0.000000000    -0.000000000    -0.000000000
H         1.622842789    14.602695465    16.699615479     0.000000000     0.000000000     0.000000000
2
# Box:   30.0000   30.0000   30.0000
H         1.011173725    15.151563644    12.549657822    -0.000000000    -0.000000000    -0.000000000
H         1.658803821    14.608436584    16.730342865     0.000000000     0.000000000     0.000000000
2
# Box:   30.0000   30.0000   30.0000
H         0.975990415    15.145170212    12.523960114    -0.000000000    -0.000000000    -0.000000000
H         1.693987131    14.614830017    16.756040573     0.000000000     0.000000000     0.000000000
2
# Box:   30.0000   30.0000   30.0000
H         0.941598058    15.138191223    12.502929688    -0.000000000    -0.000000000    -0.000000000
H         1.728379488    14.621809959    16.777069092     0.000000000     0.000000000     0.000000000
2
# Box:   30.0000   30.0000   30.0000
H         0.908009946    15.130681992    12.486274719    -0.000000000    -0.000000000    -0.000000000
H         1.761967659    14.629318237    16.793725967     0.000000000     0.000000000     0.000000000
2
# Box:   30.0000   30.0000   30.0000
H         0.875240862    15.122691154    12.473750114    -0.000000000    -0.000000000    -0.000000000
H         1.794736624    14.637309074    16.806249619     0.000000000     0.000000000     0.000000000
2
# Box:   30.0000   30.0000   30.0000
H         0.843308210    15.114259720    12.465167999    -0.000000000    -0.000000000    -0.000000000
H         1.826669455    14.645740509    16.814830780     0.000000000     0.000000000     0.000000000
2
# Box:   30.0000   30.0000   30.0000
H         0.812233210    15.105419159    12.460382462    -0.000000000    -0.000000000    -0.000000000
H         1.857744694    14.654581070    16.819618225     0.000000000     0.000000000     0.000000000
2
# Box:   30.0000   30.0000   30.0000
H         0.782040954    15.096198082    12.459277153    -0.000000000    -0.000000000     0.000000000
H         1.887937069    14.663802147    16.820722580     0.000000000     0.000000000    -0.000000000
2
# Box:   30.0000   30.0000   30.0000
H         0.752762318    15.086620331    12.461776733    -0.000000000    -0.000000000     0.000000000
H         1.917215705    14.673380852    16.818222046     0.000000000     0.000000000    -0.000000000
2
# Box:   30.0000   30.0000   30.0000
H         0.724434197    15.076704025    12.467832565    -0.000000000    -0.000000000     0.000000000
H         1.945543766    14.683296204    16.812168121     0.000000000     0.000000000    -0.000000000
2
# Box:   30.0000   30.0000   30.0000
H         0.697100520    15.066467285    12.477426529    -0.000000000    -0.000000000     0.000000000
H         1.972877502    14.693532944    16.802574158     0.000000000     0.000000000    -0.000000000
2
# Box:   30.0000   30.0000   30.0000
H         0.670814037    15.055923462    12.490568161    -0.000000000    -0.000000000     0.000000000
H         1.999164224    14.704076767    16.789432526     0.000000000     0.000000000    -0.000000000
2
# Box:   30.0000   30.0000   30.0000
H         0.645636797    15.045087814    12.507300377    -0.000000000    -0.000000000     0.000000000
H         2.024341822    14.714913368    16.772699356     0.000000000     0.000000000    -0.000000000
2
# Box:   30.0000   30.0000   30.0000
H         0.621643007    15.033967972    12.527693748    -0.000000000    -0.000000000     0.000000000
H         2.048335314    14.726033211    16.752305984     0.000000000     0.000000000    -0.000000000
2
# Box:   30.0000   30.0000   30.0000
H         0.598921061    15.022573471    12.551851273    -0.000000000    -0.000000000     0.000000000
H         2.071057320    14.737426758    16.728149414     0.000000000     0.000000000    -0.000000000
2
# Box:   30.0000   30.0000   30.0000
H         0.577575982    15.010913849    12.579910278    -0.000000000    -0.000000000     0.000000000
H         2.092402458    14.749087334    16.700088501     0.000000000     0.000000000    -0.000000000
2
# Box:   30.0000   30.0000   30.0000
H         0.557733834    14.998993874    12.612057686    -0.000000000    -0.000000000     0.000000000
H         2.112244606    14.761007309    16.667942047     0.000000000     0.000000000    -0.000000000
2
# Box:   30.0000   30.0000   30.0000
H         0.539545655    14.986821175    12.648520470    -0.000000000    -0.000000000     0.000000000
H         2.130432606    14.773179054    16.631479263     0.000000000     0.000000000    -0.000000000
2
# Box:   30.0000   30.0000   30.0000
H         0.523193359    14.974399567    12.689575195    -0.000000000    -0.000000000     0.000000000
H         2.146785021    14.785600662    16.590425491     0.000000000     0.000000000    -0.000000000
2
# Box:   30.0000   30.0000   30.0000
H         0.508895755    14.961739540    12.735562325    -0.000000000    -0.000000000     0.000000000
H         2.161082506    14.798260689    16.544437408     0.000000000     0.000000000    -0.000000000
2
# Box:   30.0000   30.0000   30.0000
H         0.496915728    14.948855400    12.786889076    -0.000000000    -0.000000000     0.000000000
H         2.173062325    14.811144829    16.493110657     0.000000000     0.000000000    -0.000000000
2
# Box:   30.0000   30.0000   30.0000
H         0.487564236    14.935754776    12.844023705    -0.000000000    -0.000000000     0.000000000
H         2.182414055    14.824246407    16.435976028     0.000000000     0.000000000    -0.000000000
2
# Box:   30.0000   30.0000   30.0000
H         0.481195271    14.922457695    12.907474518    -0.000000000    -0.000000000     0.000000000
H         2.188782930    14.837542534    16.372526169     0.000000000     0.000000000    -0.000000000
2
# Box:   30.0000   30.0000   30.0000
H         0.478171378    14.908995628    12.977706909    -0.000000000    -0.000000000     0.000000000
H         2.191806793    14.851005554    16.302291870     0.000000000     0.000000000    -0.000000000
2
# Box:   30.0000   30.0000   30.0000
H         0.478744954    14.895411491    13.054919243     0.000000000    -0.000000000     0.000000000
H         2.191233397    14.864588737    16.225080490    -0.000000000     0.000000000    -0.000000000
2
# Box:   30.0000   30.0000   30.0000
H         0.482708156    14.881765366    13.138413429     0.000000000    -0.000000000     0.000000000
H         2.187270403    14.878234863    16.141586304    -0.000000000     0.000000000    -0.000000000
2
# Box:   30.0000   30.0000   30.0000
H         0.488447070    14.868104935    13.225080490     0.000000000    -0.000000000     0.000000000
H         2.181531429    14.891896248    16.054918289    -0.000000000     0.000000000    -0.000000000
2
# Box:   30.0000   30.0000   30.0000
H         0.490833819    14.854379654    13.306262970    -0.000000000    -0.000000000     0.000000000
H         2.179144859    14.905620575    15.973737717     0.000000000     0.000000000    -0.000000000
2
# Box:   30.0000   30.0000   30.0000
H         0.478939414    14.840184212    13.365081787    -0.000000000    -0.000000000     0.000000000
H         2.191039562    14.919816017    15.914917946     0.000000000     0.000000000    -0.000000000
2
# Box:   30.0000   30.0000   30.0000
H         0.440893799    14.824754715    13.385058403    -0.000000000    -0.000000000    -0.000000000
H         2.229084969    14.935245514    15.894941330     0.000000000     0.000000000     0.000000000
2
# Box:   30.0000   30.0000   30.0000
H         0.377585322    14.807790756    13.369435310    -0.000000000    -0.000000000    -0.000000000
H         2.292393208    14.952210426    15.910564423     0.000000000     0.000000000     0.000000000
2
# Box:   30.0000   30.0000   30.0000
H         0.301496595    14.789891243    13.336679459    -0.000000000    -0.000000000    -0.000000000
H         2.368481874    14.970109940    15.943319321     0.000000000     0.000000000     0.000000000
2
# Box:   30.0000   30.0000   30.0000
H         0.223333120    14.771825790    13.301229477    -0.000000000    -0.000000000    -0.000000000
H         2.446645260    14.988174438    15.978770256     0.000000000     0.000000000     0.000000000
2
# Box:   30.0000   30.0000   30.0000
H         0.148242205    14.754061699    13.269454956    -0.000000000    -0.000000000    -0.000000000
H         2.521736622    15.005939484    16.010543823     0.000000000     0.000000000     0.000000000
