2
# Box:   30.0000   30.0000   30.0000
H        14.732755661    14.543388367    14.846964836     0.000000000     0.000000000    -0.000000000
H        17.937244415    15.216612816    14.433034897    -0.000000000    -0.000000000     0.000000000
2
# Box:   30.0000   30.0000   30.0000
H        14.739364624    14.554972649    14.812955856     0.000000000     0.000000000    -0.000000000
H        17.930635452    15.205028534    14.467043877    -0.000000000    -0.000000000     0.000000000
2
# Box:   30.0000   30.0000   30.0000
H        14.738516808    14.565040588    14.779749870    -0.000000000     0.000000000    -0.000000000
H        17.931482315    15.194959641    14.500249863     0.000000000    -0.000000000     0.000000000
2
# Box:   30.0000   30.0000   30.0000
H        14.729278564    14.573453903    14.747280121    -0.000000000     0.000000000    -0.000000000
H        17.940721512    15.186547279    14.532719612     0.000000000    -0.000000000     0.000000000
2
# Box:   30.0000   30.0000   30.0000
H        14.712678909    14.580459595    14.715307236    -0.000000000     0.000000000    -0.000000000
H        17.957321167    15.179540634    14.564693451     0.000000000    -0.000000000     0.000000000
2
# Box:   30.0000   30.0000   30.0000
H        14.691229820    14.586567879    14.683569908    -0.000000000     0.000000000    -0.000000000
H        17.978769302    15.173433304    14.596429825     0.000000000    -0.000000000     0.000000000
2
# Box:   30.0000   30.0000   30.0000
H        14.667948723    14.592347145    14.651891708    -0.000000000     0.000000000    -0.000000000
H        18.002050400    15.167654037    14.628107071     0.000000000    -0.000000000     0.000000000
2
# Box:   30.0000   30.0000   30.0000
H        14.645562172    14.598276138    14.620214462    -0.000000000     0.000000000    -0.000000000
H        18.024436951    15.161724091    14.659785271     0.000000000    -0.000000000     0.000000000
2
# Box:   30.0000   30.0000   30.0000
H        14.626148224    14.604701042    14.588577271    -0.000000000     0.000000000    -0.000000000
H        18.043851852    15.155300140    14.691421509     0.000000000    -0.000000000     0.000000000
2
# Box:   30.0000   30.0000   30.0000
H        14.611133575    14.611833572    14.557075500    -0.000000000     0.000000000    -0.000000000
H        18.058866501    15.148167610    14.722924232     0.000000000    -0.000000000     0.000000000
2
# Box:   30.0000   30.0000   30.0000
H        14.601417542    14.619788170    14.525832176    -0.000000000     0.000000000    -0.000000000
H        18.068582535    15.140213013    14.754167557     0.000000000    -0.000000000     0.000000000
2
# Box:   30.0000   30.0000   30.0000
H        14.597505569    14.628614426    14.494968414    -0.000000000     0.000000000    -0.000000000
H        18.072494507    15.131386757    14.785031319     0.000000000    -0.000000000     0.000000000
2
# Box:   30.0000   30.0000   30.0000
H        14.599613190    14.638310432    14.464609146     0.000000000     0.000000000    -0.000000000
H        18.070386887    15.121689796    14.815389633    -0.000000000    -0.000000000     0.000000000
2
# Box:   30.0000   30.0000   30.0000
H        14.607704163    14.648841858    14.434853554     0.000000000     0.000000000    -0.000000000
H        18.062295914    15.111159325    14.845146179    -0.000000000    -0.000000000     0.000000000
2
# Box:   30.0000   30.0000   30.0000
H        14.621492386    14.660135269    14.405773163     0.000000000     0.000000000    -0.000000000
H        18.048507690    15.099864960    14.874227524    -0.000000000    -0.000000000     0.000000000
2
# Box:   30.0000   30.0000   30.0000
H        14.640380859    14.672082901    14.377388000     0.000000000     0.000000000    -0.000000000
H        18.029617310    15.087918282    14.902611732    -0.000000000    -0.000000000     0.000000000
2
# Box:   30.0000   30.0000   30.0000
H        14.663354874    14.684533119    14.349633217     0.000000000     0.000000000    -0.000000000
H        18.006645203    15.075468063    14.930366516    -0.000000000    -0.000000000     0.000000000
2
# Box:   30.0000   30.0000   30.0000
H        14.688843727    14.697279930    14.322307587     0.000000000     0.000000000    -0.000000000
H        17.981155396    15.062721252    14.957693100    -0.000000000    -0.000000000     0.000000000
2
# Box:   30.0000   30.0000   30.0000
H        14.714612961    14.710060120    14.295030594     0.000000000     0.000000000    -0.000000000
H        17.955387115    15.049940109    14.984969139    -0.000000000    -0.000000000     0.000000000
2
# Box:   30.0000   30.0000   30.0000
H        14.737852097    14.722579956    14.267202377     0.000000000     0.000000000    -0.000000000
H        17.932147980    15.037421227    15.012797356    -0.000000000    -0.000000000     0.000000000
2
# Box:   30.0000   30.0000   30.0000
H        14.755615234    14.734562874    14.238085747     0.000000000     0.000000000    -0.000000000
H        17.914384842    15.025438309    15.041913986    -0.000000000    -0.000000000     0.000000000
2
# Box:   30.0000   30.0000   30.0000
H        14.765714645    14.745841026    14.207015038     0.000000000     0.000000000    -0.000000000
H        17.904285431    15.014160156    15.072984695    -0.000000000    -0.000000000     0.000000000
2
# Box:   30.0000   30.0000   30.0000
H        14.767609596    14.756416321    14.173680305    -0.000000000     0.000000000    -0.000000000
H        17.902389526    15.003584862    15.106319427     0.000000000    -0.000000000     0.000000000
2
# Box:   30.0000   30.0000   30.0000
H        14.762664795    14.766449928    14.138320923    -0.000000000     0.000000000    -0.000000000
H        17.907335281    14.993551254    15.141678810     0.000000000    -0.000000000     0.000000000
2
# Box:   30.0000   30.0000   30.0000
H        14.753505707    14.776177406    14.101625443    -0.000000000     0.000000000    -0.000000000
H        17.916492462    14.983823776    15.178374290     0.000000000    -0.000000000     0.000000000
2
# Box:   30.0000   30.0000   30.0000
H        14.743064880    14.785816193    14.064501762    -0.000000000     0.000000000    -0.000000000
H        17.926935196    14.974184036    15.215497971     0.000000000    -0.000000000     0.000000000
2
# Box:   30.0000   30.0000   30.0000
H        14.733846664    14.795527458    14.027832031    -0.000000000     0.000000000    -0.000000000
H        17.936153412    14.964473724    15.252168655     0.000000000    -0.000000000     0.000000000
2
# Box:   30.0000   30.0000   30.0000
H        14.727707863    14.805398941    13.992342949    -0.000000000     0.000000000    -0.000000000
H        17.942291260    14.954601288    15.287656784     0.000000000    -0.000000000     0.000000000
2
# Box:   30.0000   30.0000   30.0000
H        14.725876808    14.815468788    13.958593369     0.000000000     0.000000000    -0.000000000
H        17.944122314    14.944532394    15.321406364    -0.000000000    -0.000000000     0.000000000
2
# Box:   30.0000   30.0000   30.0000
H        14.729088783    14.825738907    13.926981926     0.000000000     0.000000000    -0.000000000
H        17.940910339    14.934262276    15.353017807    -0.000000000    -0.000000000     0.000000000
2
# Box:   30.0000   30.0000   30.0000
H        14.737722397    14.836191177    13.897776604     0.000000000     0.000000000    -0.000000000
H        17.932277679    14.923810005    15.382223129    -0.000000000    -0.000000000     0.000000000
2
# Box:   30.0000   30.0000   30.0000
H        14.751897812    14.846796989    13.871146202     0.000000000     0.000000000    -0.000000000
H        17.918102264    14.913204193    15.408853531    -0.000000000    -0.000000000     0.000000000
2
# Box:   30.0000   30.0000   30.0000
H        14.771511078    14.857516289    13.847158432     0.000000000     0.000000000    -0.000000000
H        17.898487091    14.902484894    15.432842255    -0.000000000    -0.000000000     0.000000000
2
# Box:   30.0000   30.0000   30.0000
H        14.796217918    14.868309021    13.825749397     0.000000000     0.000000000    -0.000000000
H        17.873781204    14.891691208    15.454250336    -0.000000000    -0.000000000     0.000000000
2
# Box:   30.0000   30.0000   30.0000
H        14.825389862    14.879139900    13.806701660     0.000000000     0.000000000    -0.000000000
H        17.844610214    14.880861282    15.473298073    -0.000000000    -0.000000000     0.000000000
2
# Box:   30.0000   30.0000   30.0000
H        14.858012199    14.889972687    13.789554596     0.000000000     0.000000000    -0.000000000
H        17.811986923    14.870028496    15.490445137    -0.000000000    -0.000000000     0.000000000
2
# Box:   30.0000   30.0000   30.0000
H        14.892572403    14.900793076    13.773513794     0.000000000     0.000000000    -0.000000000
H        17.777427673    14.859208107    15.506485939    -0.000000000    -0.000000000     0.000000000
2
# Box:   30.0000   30.0000   30.0000
H        14.926996231    14.911618233    13.757383347     0.000000000     0.000000000    -0.000000000
H        17.743003845    14.848382950    15.522615433    -0.000000000    -0.000000000     0.000000000
2
# Box:   30.0000   30.0000   30.0000
H        14.958773613    14.922508240    13.739581108     0.000000000     0.000000000    -0.000000000
H        17.711225510    14.837492943    15.540418625    -0.000000000    -0.000000000     0.000000000
2
# Box:   30.0000   30.0000   30.0000
H        14.985439301    14.933557510    13.718424797     0.000000000     0.000000000    -0.000000000
H        17.684558868    14.826442719    15.561574936    -0.000000000    -0.000000000     0.000000000
2
# Box:   30.0000   30.0000   30.0000
H        15.005355835    14.944876671    13.692654610     0.000000000     0.000000000    -0.000000000
H        17.664644241    14.815124512    15.587345123    -0.000000000    -0.000000000     0.000000000
2
# Box:   30.0000   30.0000   30.0000
H        15.018402100    14.956530571    13.661991119     0.000000000     0.000000000    -0.000000000
H        17.651597977    14.803470612    15.618008614    -0.000000000    -0.000000000     0.000000000
2
# Box:   30.0000   30.0000   30.0000
H        15.026018143    14.968498230    13.627307892     0.000000000     0.000000000    -0.000000000
H        17.643981934    14.791502953    15.652692795    -0.000000000    -0.000000000     0.000000000
2
# Box:   30.0000   30.0000   30.0000
H        15.030542374    14.980669022    13.590240479     0.000000000     0.000000000    -0.000000000
H        17.639457703    14.779331207    15.689759254    -0.000000000    -0.000000000     0.000000000
2
# Box:   30.0000   30.0000   30.0000
H        15.034388542    14.992891312    13.552640915     0.000000000     0.000000000    -0.000000000
H        17.635610580    14.767108917    15.727358818    -0.000000000    -0.000000000     0.000000000
2
# Box:   30.0000   30.0000   30.0000
H        15.039527893    15.004997253    13.516132355     0.000000000     0.000000000    -0.000000000
H        17.630472183    14.755002975    15.763866425    -0.000000000    -0.000000000     0.000000000
2
# Box:   30.0000   30.0000   30.0000
H        15.047353745    15.016841888    13.481961250     0.000000000     0.000000000    -0.000000000
H        17.622646332    14.743158340    15.798038483    -0.000000000    -0.000000000     0.000000000
