1
# Step: 0 Box:       inf    0.0000    0.0000 
H        -0.988859157     0.000000000     0.000000000     0.165666391     0.393913890     0.007392079
1
# Step: 1 Box:       inf    0.0000    0.0000 
H        -0.984388043     0.000000000     0.000000000     0.166839228     0.393913890     0.007392079
1
# Step: 2 Box:       inf    0.0000    0.0000 
H        -0.980149568     0.000000000     0.000000000     0.162643944     0.393913890     0.007392079
1
# Step: 3 Box:       inf    0.0000    0.0000 
H        -0.976340646     0.000000000     0.000000000     0.154564829     0.393913890     0.007392079
1
# Step: 4 Box:       inf    0.0000    0.0000 
H        -0.972873557     0.000000000     0.000000000     0.153606935     0.393913890     0.007392079
1
# Step: 5 Box:       inf    0.0000    0.0000 
H        -0.969174577     0.000000000     0.000000000     0.147346765     0.393913890     0.007392079
1
# Step: 6 Box:       inf    0.0000    0.0000 
H        -0.964917017     0.000000000     0.000000000     0.201983291     0.393913890     0.007392079
1
# Step: 7 Box:       inf    0.0000    0.0000 
H        -0.960056791     0.000000000     0.000000000     0.197161076     0.393913890     0.007392079
1
# Step: 8 Box:       inf    0.0000    0.0000 
H        -0.955840923     0.000000000     0.000000000     0.161924563     0.393913890     0.007392079
1
# Step: 9 Box:       inf    0.0000    0.0000 
H        -0.952125566     0.000000000     0.000000000     0.133383651     0.393913890     0.007392079
1
# Step: 10 Box:       inf    0.0000    0.0000 
H        -0.948826307     0.000000000     0.000000000     0.127179883     0.393913890     0.007392079
1
# Step: 11 Box:       inf    0.0000    0.0000 
H        -0.945027286     0.000000000     0.000000000     0.155378908     0.393913890     0.007392079
1
# Step: 12 Box:       inf    0.0000    0.0000 
H        -0.941318930     0.000000000     0.000000000     0.138597985     0.393913890     0.007392079
1
# Step: 13 Box:       inf    0.0000    0.0000 
H        -0.937530122     0.000000000     0.000000000     0.131696953     0.393913890     0.007392079
1
# Step: 14 Box:       inf    0.0000    0.0000 
H        -0.934616174     0.000000000     0.000000000     0.097399803     0.393913890     0.007392079
1
# Step: 15 Box:       inf    0.0000    0.0000 
H        -0.931964755     0.000000000     0.000000000     0.126088930     0.393913890     0.007392079
1
# Step: 16 Box:       inf    0.0000    0.0000 
H        -0.928509213     0.000000000     0.000000000     0.131890720     0.393913890     0.007392079
1
# Step: 17 Box:       inf    0.0000    0.0000 
H        -0.926079717     0.000000000     0.000000000     0.060602846     0.393913890     0.007392079
1
# Step: 18 Box:       inf    0.0000    0.0000 
H        -0.924135324     0.000000000     0.000000000     0.062257234     0.393913890     0.007392079
1
# Step: 19 Box:       inf    0.0000    0.0000 
H        -0.922737227     0.000000000     0.000000000     0.046703961     0.393913890     0.007392079
1
# Step: 20 Box:       inf    0.0000    0.0000 
H        -0.921301556     0.000000000     0.000000000     0.034989136     0.393913890     0.007392079
1
# Step: 21 Box:       inf    0.0000    0.0000 
H        -0.920183212     0.000000000     0.000000000     0.045546298     0.393913890     0.007392079
1
# Step: 22 Box:       inf    0.0000    0.0000 
H        -0.919217694     0.000000000     0.000000000     0.034159339     0.393913890     0.007392079
1
# Step: 23 Box:       inf    0.0000    0.0000 
H        -0.918918677     0.000000000     0.000000000    -0.006989531     0.393913890     0.007392079
1
# Step: 24 Box:       inf    0.0000    0.0000 
H        -0.919030025     0.000000000     0.000000000    -0.003826790     0.393913890     0.007392079
1
# Step: 25 Box:       inf    0.0000    0.0000 
H        -0.919188504     0.000000000     0.000000000    -0.016331509     0.393913890     0.007392079
1
# Step: 26 Box:       inf    0.0000    0.0000 
H        -0.919600962     0.000000000     0.000000000    -0.019582690     0.393913890     0.007392079
1
# Step: 27 Box:       inf    0.0000    0.0000 
H        -0.920161730     0.000000000     0.000000000    -0.048949909     0.393913890     0.007392079
1
# Step: 28 Box:       inf    0.0000    0.0000 
H        -0.921436934     0.000000000     0.000000000    -0.078510927     0.393913890     0.007392079
1
# Step: 29 Box:       inf    0.0000    0.0000 
H        -0.923814076     0.000000000     0.000000000    -0.077291474     0.393913890     0.007392079
1
# Step: 30 Box:       inf    0.0000    0.0000 
H        -0.926433074     0.000000000     0.000000000    -0.125337614     0.393913890     0.007392079
1
# Step: 31 Box:       inf    0.0000    0.0000 
H        -0.930118095     0.000000000     0.000000000    -0.153682367     0.393913890     0.007392079
1
# Step: 32 Box:       inf    0.0000    0.0000 
H        -0.933533759     0.000000000     0.000000000    -0.136108140     0.393913890     0.007392079
1
# Step: 33 Box:       inf    0.0000    0.0000 
H        -0.937090182     0.000000000     0.000000000    -0.115117940     0.393913890     0.007392079
1
# Step: 34 Box:       inf    0.0000    0.0000 
H        -0.939712860     0.000000000     0.000000000    -0.089841615     0.393913890     0.007392079
1
# Step: 35 Box:       inf    0.0000    0.0000 
H        -0.942118164     0.000000000     0.000000000    -0.110964184     0.393913890     0.007392079
1
# Step: 36 Box:       inf    0.0000    0.0000 
H        -0.945495279     0.000000000     0.000000000    -0.165811278     0.393913890     0.007392079
1
# Step: 37 Box:       inf    0.0000    0.0000 
H        -0.949376871     0.000000000     0.000000000    -0.152596958     0.393913890     0.007392079
1
# Step: 38 Box:       inf    0.0000    0.0000 
H        -0.953441827     0.000000000     0.000000000    -0.174871179     0.393913890     0.007392079
1
# Step: 39 Box:       inf    0.0000    0.0000 
H        -0.958054959     0.000000000     0.000000000    -0.197056944     0.393913890     0.007392079
1
# Step: 40 Box:       inf    0.0000    0.0000 
H        -0.963921452     0.000000000     0.000000000    -0.238349896     0.393913890     0.007392079
1
# Step: 41 Box:       inf    0.0000    0.0000 
H        -0.969975930     0.000000000     0.000000000    -0.251206663     0.393913890     0.007392079
1
# Step: 42 Box:       inf    0.0000    0.0000 
H        -0.975894796     0.000000000     0.000000000    -0.250575984     0.393913890     0.007392079
1
# Step: 43 Box:       inf    0.0000    0.0000 
H        -0.982325280     0.000000000     0.000000000    -0.247793796     0.393913890     0.007392079
1
# Step: 44 Box:       inf    0.0000    0.0000 
H        -0.989378185     0.000000000     0.000000000    -0.319694098     0.393913890     0.007392079
1
# Step: 45 Box:       inf    0.0000    0.0000 
H        -0.997264142     0.000000000     0.000000000    -0.277617930     0.393913890     0.007392079
