1
# Box:    0.0000    0.0000    0.0000
H        -0.964000000     0.000000000     0.000000000     0.000000000     0.000000000     0.000000000
1
# Box:    0.0000    0.0000    0.0000
H        -1.050000000     0.000000000     0.000000000     0.000000000     0.000000000     0.000000000
1
# Box:    0.0000    0.0000    0.0000
H        -0.964000000     0.000000000     0.000000000     0.000000000     0.000000000     0.000000000
