2
# Step: 0 Box:    3.0000    3.0000    3.0000
H         0.029357619    -0.036219028     0.069848201     0.949934356     2.276221641     1.381658631
H         0.364403495     0.031069188     0.028970613    -3.174375824     0.590074786     0.708683831
2
# Step: 1 Box:    3.0000    3.0000    3.0000
H         0.031418519    -0.031604557     0.072630033     1.046249718     2.296544227     1.381030491
H         0.357906289     0.032238614     0.030336537    -3.262432474     0.565508803     0.638054049
2
# Step: 2 Box:    3.0000    3.0000    3.0000
H         0.033311089    -0.027073281     0.075399957     0.796727169     2.214519495     1.431132138
H         0.351512339     0.033435311     0.031636893    -3.044904980     0.651065724     0.643026118
2
# Step: 3 Box:    3.0000    3.0000    3.0000
H         0.034330920    -0.022732934     0.078308986     0.131567591     2.089042544     1.485569917
H         0.346005490     0.034845785     0.032826638    -2.393482937     0.759313216     0.546634864
2
# Step: 4 Box:    3.0000    3.0000    3.0000
H         0.033629509    -0.018748623     0.081447133    -0.897000132     1.897956644     1.653270979
H         0.342227120     0.036518218     0.033842167    -1.348304671     0.907781264     0.465033712
2
# Step: 5 Box:    3.0000    3.0000    3.0000
H         0.030687889    -0.015180632     0.084849272    -2.013417200     1.670203529     1.766782770
H         0.340649697     0.038537295     0.034584759    -0.270714887     1.143178964     0.266590347
2
# Step: 6 Box:    3.0000    3.0000    3.0000
H         0.025756885    -0.011892722     0.088512520    -2.806236924     1.625567044     1.895577444
H         0.341005007     0.040960443     0.034946995     0.542429865     1.281298619     0.102335685
2
# Step: 7 Box:    3.0000    3.0000    3.0000
H         0.019688044    -0.008721107     0.092359547    -3.164789172     1.556795209     1.944342301
H         0.342564359     0.043628559     0.035063973     0.925459557     1.372452192     0.024489201
2
# Step: 8 Box:    3.0000    3.0000    3.0000
H         0.013315302    -0.005583028     0.096255264    -3.163721784     1.598395683     1.931798348
H         0.344477430     0.046400478     0.035136096     0.922987938     1.367092018     0.067756379
2
# Step: 9 Box:    3.0000    3.0000    3.0000
H         0.007152894    -0.002391023     0.100186822    -2.948324230     1.568548208     1.973574525
H         0.346196817     0.049056315     0.035286919     0.773180367     1.305289988     0.081245580
