1
# Step: 0 Box:       inf    0.0000    0.0000 
H         0.154878683     0.000000000     0.000000000     0.491022225     0.228219272     0.321387835
1
# Step: 1 Box:       inf    0.0000    0.0000 
H         0.166756734     0.000000000     0.000000000     0.478853901     0.228219272     0.321387835
1
# Step: 2 Box:       inf    0.0000    0.0000 
H         0.178901531     0.000000000     0.000000000     0.504966298     0.228219272     0.321387835
1
# Step: 3 Box:       inf    0.0000    0.0000 
H         0.191371835     0.000000000     0.000000000     0.522675843     0.228219272     0.321387835
1
# Step: 4 Box:       inf    0.0000    0.0000 
H         0.204400059     0.000000000     0.000000000     0.545087531     0.228219272     0.321387835
1
# Step: 5 Box:       inf    0.0000    0.0000 
H         0.218076466     0.000000000     0.000000000     0.533198431     0.228219272     0.321387835
1
# Step: 6 Box:       inf    0.0000    0.0000 
H         0.230653630     0.000000000     0.000000000     0.483675427     0.228219272     0.321387835
1
# Step: 7 Box:       inf    0.0000    0.0000 
H         0.243058461     0.000000000     0.000000000     0.513188896     0.228219272     0.321387835
1
# Step: 8 Box:       inf    0.0000    0.0000 
H         0.256396381     0.000000000     0.000000000     0.580317707     0.228219272     0.321387835
1
# Step: 9 Box:       inf    0.0000    0.0000 
H         0.271603658     0.000000000     0.000000000     0.609852481     0.228219272     0.321387835
1
# Step: 10 Box:       inf    0.0000    0.0000 
H         0.287730049     0.000000000     0.000000000     0.678449404     0.228219272     0.321387835
1
# Step: 11 Box:       inf    0.0000    0.0000 
H         0.304547123     0.000000000     0.000000000     0.674287039     0.228219272     0.321387835
