2
# Step: 0 Box:    3.0000    3.0000    3.0000
H         0.034702744    -0.159405648     0.061463727     0.489631580     1.778553803    -0.253332376
H         0.409353065    -0.042579667     0.033855622     0.976277009    -1.128511424    -1.729463119
2
# Step: 1 Box:    3.0000    3.0000    3.0000
H         0.035987089    -0.155815064     0.060906350     0.788424113     1.815300263    -0.314640743
H         0.410954033    -0.044970549     0.030417179     0.650528218    -1.247518829    -1.715869354
