4
# Step: 0 Box:    8.0000    8.0000    8.0000 
H         2.856402043     0.159457250     0.368718415     0.000753642    -0.001720966    -0.000192881
H         2.059835020     0.678040970     0.607750289     0.000562122    -0.001095174    -0.000219515
H         1.759339536    -0.208167171     0.887706913    -0.001641328     0.000965131     0.000635825
H         2.047856063    -0.587208421     0.053107753     0.000325563     0.001851009    -0.000223429
4
# Step: 1 Box:    8.0000    8.0000    8.0000 
H         2.953771478     0.000187232     0.351192680     0.000419601    -0.001165460     0.000128405
H         2.146121847     0.621150183     0.602252905     0.001114024     0.000269224     0.000440399
H         1.587193390    -0.144642576     0.911490775    -0.000552697     0.000215777    -0.001280632
H         2.036345838    -0.434572210     0.052347009    -0.000980929     0.000680459     0.000711828
4
# Step: 2 Box:    8.0000    8.0000    8.0000 
H         2.920447508    -0.067197808     0.408858098    -0.000549997    -0.000343485     0.000775513
H         2.304219649     0.643379771     0.698026940     0.001516593     0.000108186     0.001042122
H         1.581031805    -0.038032451     0.796788224    -0.000164139     0.001827365     0.000030142
H         1.917733482    -0.496026885     0.013610109    -0.000802458    -0.001592067    -0.001847777
4
# Step: 3 Box:    8.0000    8.0000    8.0000 
H         2.910245341    -0.151411065     0.490945733     0.000350554    -0.000980208     0.000793591
H         2.427408635     0.673479386     0.787611678     0.000716902    -0.000221070     0.000204938
H         1.580390284     0.083542396     0.726852755     0.000069454     0.000169729    -0.001605913
H         1.805388074    -0.563488089    -0.088126796    -0.001136912     0.001031549     0.000607384
4
# Step: 4 Box:    8.0000    8.0000    8.0000 
H         2.980179989    -0.269607545     0.592434023     0.000666484    -0.001687809     0.000978582
H         2.453767461     0.547407282     0.702286983    -0.000176541    -0.000844347    -0.001279938
H         1.512854925     0.174270453     0.682579938    -0.000937497     0.001345644     0.000867419
H         1.776629849    -0.409947562    -0.060017573     0.000447553     0.001186512    -0.000566064
4
# Step: 5 Box:    8.0000    8.0000    8.0000 
H         2.930044344    -0.437149685     0.711262375    -0.001834978    -0.000222560     0.001093641
H         2.483914411     0.554597531     0.597095444     0.001060400    -0.000342059    -0.000429297
H         1.547800658     0.200470281     0.713641288     0.001609810    -0.000540235    -0.000349569
H         1.761672702    -0.275795499    -0.104715736    -0.000835232     0.001104853    -0.000314775
