2
# Step: 0 Box:    3.0000    3.0000    3.0000
H        -0.126368123     0.051625456     0.474942341     3.160460184     1.329318846     0.489982071
H         0.242200706     0.007243426     0.315304298    -1.392790787     0.206821062     3.059495307
2
# Step: 1 Box:    3.0000    3.0000    3.0000
H        -0.119817997     0.054202708     0.475788408     3.428193200     1.261628311     0.343798471
H         0.239091169     0.007749885     0.321599216    -1.726968018     0.292657791     3.190769033
2
# Step: 2 Box:    3.0000    3.0000    3.0000
H        -0.112578163     0.056721187     0.476305837     3.790695121     1.233775145     0.159324100
H         0.235346890     0.008384704     0.328162174    -2.010415490     0.328496476     3.385557791
2
# Step: 3 Box:    3.0000    3.0000    3.0000
H        -0.104651595     0.059094076     0.476462442     4.110287999     1.150861768     0.009884098
H         0.230930455     0.009116594     0.335098924    -2.404851508     0.395546582     3.536734745
2
# Step: 4 Box:    3.0000    3.0000    3.0000
H        -0.096133110     0.061353350     0.476309975     4.395743388     1.138635905    -0.156180382
H         0.225774619     0.009922572     0.342313283    -2.727002437     0.426633385     3.674589925
2
# Step: 5 Box:    3.0000    3.0000    3.0000
H        -0.087133229     0.063570926     0.475935460     4.583962301     1.085728750    -0.228922859
H         0.220155036     0.010786116     0.349697876    -2.850871291     0.433917555     3.680759482
