2
# Step: 0 Box:    3.0000    3.0000    3.0000
H        -0.168971011     0.003734288     0.436490469     0.162610586    -1.469658077    -1.821108740
H         0.233644337     0.004600071     0.243661007    -1.579007196    -0.011546071    -1.452963125
2
# Step: 1 Box:    3.0000    3.0000    3.0000
H        -0.168510881     0.000809750     0.432715991     0.331008912    -1.458204157    -1.919356620
H         0.230261829     0.004585774     0.240818659    -1.792659704    -0.043083827    -1.383304457
2
# Step: 2 Box:    3.0000    3.0000    3.0000
H        -0.167616146    -0.002146425     0.428746011     0.549942911    -1.491859231    -2.021697387
H         0.226439354     0.004544454     0.238153094    -2.034694828    -0.003751231    -1.283155745
2
# Step: 3 Box:    3.0000    3.0000    3.0000
H        -0.166330441    -0.005192514     0.424564246     0.734739758    -1.549360767    -2.197883326
H         0.222183216     0.004560801     0.235693413    -2.227858329     0.021612861    -1.156748007
2
# Step: 4 Box:    3.0000    3.0000    3.0000
H        -0.164657576    -0.008259727     0.420036449     0.941099976    -1.515985269    -2.329866489
H         0.217572496     0.004591026     0.233494377    -2.380618316     0.032480555    -1.040110171
2
# Step: 5 Box:    3.0000    3.0000    3.0000
H        -0.162558294    -0.011355062     0.415307081     1.184889002    -1.560560774    -2.415709855
H         0.212586620     0.004639892     0.231534230    -2.607368884     0.002030550    -0.918712953
2
# Step: 6 Box:    3.0000    3.0000    3.0000
H        -0.159941400    -0.014438844     0.410319710     1.444829144    -1.532198854    -2.543377282
H         0.207016570     0.004680697     0.229812165    -2.923651107     0.021102318    -0.782851490
2
# Step: 7 Box:    3.0000    3.0000    3.0000
H        -0.156780757    -0.017441182     0.405038772     1.727492927    -1.470046617    -2.703739198
H         0.200844534     0.004762875     0.228394032    -3.245090924     0.046459926    -0.619473917
