2
# Step: 0 Box:    3.0000    3.0000    3.0000
H        -0.168971011     0.003734288     0.436490469    -0.162610586     1.469658077     1.821108740
H         0.233644337     0.004600071     0.243661007     1.579007196     0.011546071     1.452963125
2
# Step: 1 Box:    3.0000    3.0000    3.0000
H        -0.169128198     0.006651312     0.440104093     0.023927649     1.460426969     1.784803864
H         0.236616555     0.004660505     0.246696125     1.413676305     0.043467451     1.597268763
2
# Step: 2 Box:    3.0000    3.0000    3.0000
H        -0.168956755     0.009637757     0.443595497     0.158556516     1.528599290     1.685357570
H         0.239337404     0.004825924     0.250014449     1.268214503     0.101017149     1.715557061
2
# Step: 3 Box:    3.0000    3.0000    3.0000
H        -0.168466702     0.012691743     0.446847202     0.344178700     1.530867391     1.539586868
H         0.241743312     0.004974105     0.253604769     1.140210105     0.050137691     1.851207291
2
# Step: 4 Box:    3.0000    3.0000    3.0000
H        -0.167611166     0.015742811     0.449856982     0.525821674     1.482133676     1.474883858
H         0.243855471     0.005011744     0.257378290     0.990793604    -0.012309152     1.890825849
2
# Step: 5 Box:    3.0000    3.0000    3.0000
H        -0.166355930     0.018760263     0.452682651     0.694086644     1.534508703     1.383540925
H         0.245686744     0.004940279     0.261276404     0.839369894    -0.037928465     1.991932505
2
# Step: 6 Box:    3.0000    3.0000    3.0000
H        -0.164861729     0.021852660     0.455456253     0.831452971     1.569869918     1.389279889
H         0.247180923     0.004907201     0.265354132     0.653337354     0.035298376     2.071004094
2
# Step: 7 Box:    3.0000    3.0000    3.0000
H        -0.162986516     0.024971302     0.458101276     1.050024889     1.531131604     1.284250080
H         0.248399626     0.004989781     0.269536394     0.551349760     0.050474885     2.076429114
2
# Step: 8 Box:    3.0000    3.0000    3.0000
H        -0.160665356     0.028069809     0.460636039     1.285093242     1.550454041     1.255924307
H         0.249280515     0.005083583     0.273786110     0.348590523     0.062421651     2.173734939
2
# Step: 9 Box:    3.0000    3.0000    3.0000
H        -0.157870970     0.031215668     0.463031391     1.515563986     1.568087164     1.130778264
H         0.249780332     0.005195613     0.278203384     0.172722312     0.071156196     2.261451845
2
# Step: 10 Box:    3.0000    3.0000    3.0000
H        -0.154614701     0.034264359     0.465227915     1.730755539     1.493926028     1.093134148
H         0.249925345     0.005397079     0.282793222    -0.023483653     0.123414699     2.335706215
2
# Step: 11 Box:    3.0000    3.0000    3.0000
H        -0.151029832     0.037248506     0.467310207     1.862556858     1.493640216     1.022265368
H         0.249677282     0.005647504     0.287593409    -0.193556003     0.138856613     2.463754420
2
# Step: 12 Box:    3.0000    3.0000    3.0000
H        -0.147065382     0.040306614     0.469219388     2.110020460     1.516393553     0.909490290
H         0.249080827     0.005951706     0.292646476    -0.390676844     0.156433334     2.599503935
2
# Step: 13 Box:    3.0000    3.0000    3.0000
H        -0.142661360     0.043273204     0.470933817     2.301876412     1.480640670     0.783389799
H         0.248102706     0.006242772     0.297964544    -0.617898123     0.111281137     2.743952327
2
# Step: 14 Box:    3.0000    3.0000    3.0000
H        -0.137776758     0.046147240     0.472411830     2.579723535     1.414128346     0.727056796
H         0.246645187     0.006496959     0.303532983    -0.844025147     0.141026502     2.818001184
2
# Step: 15 Box:    3.0000    3.0000    3.0000
H        -0.132337591     0.048929014     0.473787319     2.860916884     1.357458250     0.650680459
H         0.244701754     0.006851375     0.309292917    -1.128418983     0.179781064     2.925554478
2
# Step: 16 Box:    3.0000    3.0000    3.0000
H        -0.126368123     0.051625456     0.474942341     3.160460184     1.329318846     0.489982071
H         0.242200706     0.007243426     0.315304298    -1.392790787     0.206821062     3.059495307
