2
# Step: 0 Box:    3.0000    3.0000    3.0000
H         0.131109391     0.098578207    -0.025161006    -0.142229468    -2.851577305    -2.161667849
H         0.395049119    -0.181870009    -0.118566198    -2.935460497    -2.414539931     0.118893382
2
# Step: 1 Box:    3.0000    3.0000    3.0000
H         0.131068201     0.092598130    -0.029534423     0.067110432    -3.101279596    -2.202244751
H         0.388963202    -0.186447862    -0.118231264    -3.151573164    -2.174878744     0.224409501
