2
# Step: 0 Box:    3.0000    3.0000    3.0000
H         0.131068201     0.092598130    -0.029534423     0.067110432    -3.101279596    -2.202244751
H         0.388963202    -0.186447862    -0.118231264    -3.151573164    -2.174878744     0.224409501
2
# Step: 1 Box:    3.0000    3.0000    3.0000
H         0.131442069     0.086178508    -0.033999719     0.282244429    -3.375415296    -2.265479737
H         0.382360703    -0.190538543    -0.117699984    -3.430190806    -1.932305758     0.313125325
2
# Step: 2 Box:    3.0000    3.0000    3.0000
H         0.132324034     0.079159211    -0.038679378     0.578412558    -3.632627012    -2.434162595
H         0.375131366    -0.194110568    -0.117025260    -3.805375623    -1.626705616     0.370845223
2
# Step: 3 Box:    3.0000    3.0000    3.0000
H         0.133761449     0.071598617    -0.043672456     0.856334276    -3.924726616    -2.577556747
H         0.367310729    -0.197152411    -0.116229444    -4.027315173    -1.384408239     0.445921012
2
# Step: 4 Box:    3.0000    3.0000    3.0000
H         0.135716522     0.063486210    -0.048876889     1.098114117    -4.162358138    -2.638484000
H         0.359041169    -0.199662623    -0.115225950    -4.240135928    -1.123847224     0.545851479
2
# Step: 5 Box:    3.0000    3.0000    3.0000
H         0.138043550     0.054979337    -0.054212083     1.208466969    -4.321085356    -2.701043184
H         0.350409817    -0.201729304    -0.114117568    -4.388743031    -0.989578930     0.560598262
