2
# Step: 0 Box:    3.0000    3.0000    3.0000
H         0.156099727     0.133256607     0.008554440     2.348820904     0.625795729     1.172200818
H         0.430649118    -0.111042168    -0.111812876     0.563231246     4.623175795     0.824087156
2
# Step: 1 Box:    3.0000    3.0000    3.0000
H         0.161002747     0.134272340     0.010742026     2.560524666     0.389669493     1.011019791
H         0.431561257    -0.101532057    -0.110065917     0.307123514     4.894112473     0.939855349
2
# Step: 2 Box:    3.0000    3.0000    3.0000
H         0.166411262     0.134820555     0.012635187     2.838821423     0.147535293     0.895298404
H         0.431882513    -0.091520840    -0.108026633    -0.005756601     5.112472247     1.084198144
2
# Step: 3 Box:    3.0000    3.0000    3.0000
H         0.172403040     0.134898144     0.014362688     3.164204473    -0.072481731     0.813248853
H         0.431607855    -0.081078613    -0.105711060    -0.259719402     5.342114600     1.222774912
2
# Step: 4 Box:    3.0000    3.0000    3.0000
H         0.178962612     0.134541118     0.015908599     3.368573638    -0.254243226     0.734214412
H         0.430883102    -0.070129900    -0.103144537    -0.466487753     5.579816931     1.349084090
2
# Step: 5 Box:    3.0000    3.0000    3.0000
H         0.185853740     0.133988506     0.017350736     3.470555526    -0.292697160     0.703604427
H         0.429836947    -0.058911727    -0.100412117    -0.532118586     5.608033611     1.381159130
