2
# Step: 0 Box:    3.0000    3.0000    3.0000
H         0.131109391     0.098578207    -0.025161006     0.142229468     2.851577305     2.161667849
H         0.395049119    -0.181870009    -0.118566198     2.935460497     2.414539931    -0.118893382
2
# Step: 1 Box:    3.0000    3.0000    3.0000
H         0.131641731     0.104067375    -0.020960446     0.384118826     2.631945655     2.043595763
H         0.400693377    -0.176785687    -0.118739780     2.678722464     2.658935613    -0.034293695
2
# Step: 2 Box:    3.0000    3.0000    3.0000
H         0.132658254     0.109036508    -0.016914648     0.608528282     2.340001542     1.984851990
H         0.405775629    -0.171170710    -0.118715632     2.403172440     2.955605546     0.036227907
2
# Step: 3 Box:    3.0000    3.0000    3.0000
H         0.134127088     0.113518635    -0.013040197     0.846901647     2.143673611     1.868296662
H         0.410412496    -0.165050887    -0.118558396     2.229973839     3.141374686     0.131748489
2
# Step: 4 Box:    3.0000    3.0000    3.0000
H         0.136039147     0.117669948    -0.009424683     1.078651699     1.950419630     1.761445601
H         0.414710347    -0.158580386    -0.118156950     2.049265926     3.349192195     0.247363450
2
# Step: 5 Box:    3.0000    3.0000    3.0000
H         0.138351666     0.121363024    -0.005916183     1.248257387     1.760275458     1.726924835
H         0.418582111    -0.151680938    -0.117583803     1.798479213     3.535382305     0.317567672
2
# Step: 6 Box:    3.0000    3.0000    3.0000
H         0.141053620     0.124634216    -0.002539637     1.463483032     1.509587021     1.649898948
H         0.421947643    -0.144414372    -0.116838085     1.585638513     3.741623393     0.443733209
2
# Step: 7 Box:    3.0000    3.0000    3.0000
H         0.144184040     0.127451150     0.000612055     1.636524723     1.320114605     1.493783588
H         0.424879939    -0.136729751    -0.115842703     1.347366195     3.950574705     0.531133376
2
# Step: 8 Box:    3.0000    3.0000    3.0000
H         0.147680930     0.129887038     0.003499533     1.864636898     1.104449152     1.365890490
H         0.427331058    -0.128632657    -0.114697041     1.082046382     4.132478738     0.599098416
2
# Step: 9 Box:    3.0000    3.0000    3.0000
H         0.151659554     0.131795310     0.006128476     2.090274801     0.828875933     1.263030073
H         0.429235362    -0.120087215    -0.113394319     0.824645781     4.385165065     0.714854345
2
# Step: 10 Box:    3.0000    3.0000    3.0000
H         0.156099727     0.133256607     0.008554440     2.348820904     0.625795729     1.172200818
H         0.430649118    -0.111042168    -0.111812876     0.563231246     4.623175795     0.824087156
