4
# Step: 0 Box:    8.0000    8.0000    8.0000 
H         2.151416429    -0.417258511     0.126281917     0.000453354    -0.000763332    -0.000061052
H         2.886722519     0.278390221     0.215383958     0.000324653     0.000451586     0.000508831
H         3.144251475    -0.055001788     1.091068411    -0.000363949    -0.000443681    -0.000183507
H         2.152709329     0.092383774     1.245960183    -0.000414058     0.000755426    -0.000264272
4
# Step: 1 Box:    8.0000    8.0000    8.0000 
H         2.254571626    -0.448463091     0.112110866     0.001194977     0.000136455    -0.000461579
H         2.911878444     0.284482039     0.184924619     0.000045280    -0.000549309    -0.000563111
H         3.045112542    -0.093562505     1.096948420    -0.000701000    -0.000126824     0.000176253
H         2.123537140     0.156057144     1.284710564    -0.000539256     0.000539677     0.000848437
