1
# Step: 0 Box:       inf    0.0000    0.0000 
H        -0.784884785     0.000000000     0.000000000    -0.122675035     0.031304099    -0.582715141
1
# Step: 1 Box:       inf    0.0000    0.0000 
H        -0.788256706     0.000000000     0.000000000    -0.123485098     0.031304099    -0.582715141
1
# Step: 2 Box:       inf    0.0000    0.0000 
H        -0.791806495     0.000000000     0.000000000    -0.155510768     0.031304099    -0.582715141
1
# Step: 3 Box:       inf    0.0000    0.0000 
H        -0.795619728     0.000000000     0.000000000    -0.124393259     0.031304099    -0.582715141
1
# Step: 4 Box:       inf    0.0000    0.0000 
H        -0.798845369     0.000000000     0.000000000    -0.157825549     0.031304099    -0.582715141
1
# Step: 5 Box:       inf    0.0000    0.0000 
H        -0.804284735     0.000000000     0.000000000    -0.260185640     0.031304099    -0.582715141
1
# Step: 6 Box:       inf    0.0000    0.0000 
H        -0.810549136     0.000000000     0.000000000    -0.269768895     0.031304099    -0.582715141
1
# Step: 7 Box:       inf    0.0000    0.0000 
H        -0.817851220     0.000000000     0.000000000    -0.321095915     0.031304099    -0.582715141
1
# Step: 8 Box:       inf    0.0000    0.0000 
H        -0.825679558     0.000000000     0.000000000    -0.306577872     0.031304099    -0.582715141
1
# Step: 9 Box:       inf    0.0000    0.0000 
H        -0.833980119     0.000000000     0.000000000    -0.355485970     0.031304099    -0.582715141
1
# Step: 10 Box:       inf    0.0000    0.0000 
H        -0.843818481     0.000000000     0.000000000    -0.428176336     0.031304099    -0.582715141
1
# Step: 11 Box:       inf    0.0000    0.0000 
H        -0.854070835     0.000000000     0.000000000    -0.400491128     0.031304099    -0.582715141
1
# Step: 12 Box:       inf    0.0000    0.0000 
H        -0.864303414     0.000000000     0.000000000    -0.403856487     0.031304099    -0.582715141
1
# Step: 13 Box:       inf    0.0000    0.0000 
H        -0.875337001     0.000000000     0.000000000    -0.448794071     0.031304099    -0.582715141
1
# Step: 14 Box:       inf    0.0000    0.0000 
H        -0.887121595     0.000000000     0.000000000    -0.499452971     0.031304099    -0.582715141
1
# Step: 15 Box:       inf    0.0000    0.0000 
H        -0.900658177     0.000000000     0.000000000    -0.540308118     0.031304099    -0.582715141
1
# Step: 16 Box:       inf    0.0000    0.0000 
H        -0.915254344     0.000000000     0.000000000    -0.592922131     0.031304099    -0.582715141
1
# Step: 17 Box:       inf    0.0000    0.0000 
H        -0.930119864     0.000000000     0.000000000    -0.589140628     0.031304099    -0.582715141
1
# Step: 18 Box:       inf    0.0000    0.0000 
H        -0.945134010     0.000000000     0.000000000    -0.578200573     0.031304099    -0.582715141
1
# Step: 19 Box:       inf    0.0000    0.0000 
H        -0.959703981     0.000000000     0.000000000    -0.570261053     0.031304099    -0.582715141
1
# Step: 20 Box:       inf    0.0000    0.0000 
H        -0.974211992     0.000000000     0.000000000    -0.580347841     0.031304099    -0.582715141
1
# Step: 21 Box:       inf    0.0000    0.0000 
H        -0.989366352     0.000000000     0.000000000    -0.625849451     0.031304099    -0.582715141
1
# Step: 22 Box:       inf    0.0000    0.0000 
H        -1.004542263     0.000000000     0.000000000    -0.601716407     0.031304099    -0.582715141
