2
# Box:    3.0000    3.0000    3.0000 
H         1.461176991     1.488000035     1.463999987     3.157041311     0.000000000     0.000000000
H         1.805822968     1.488000035     1.463999987    -3.157041311     0.000000000     0.000000000
2
# Box:    3.0000    3.0000    3.0000 
H         1.457757115     1.488000035     1.463999987    -0.572798073     0.000000000     0.000000000
H         1.809242845     1.488000035     1.463999987     0.572798073     0.000000000     0.000000000
2
# Box:    3.0000    3.0000    3.0000 
H         1.456559062     1.488000035     1.463999987     1.185084939     0.000000000     0.000000000
H         1.810440898     1.488000035     1.463999987    -1.185084939     0.000000000     0.000000000
2
# Box:    3.0000    3.0000    3.0000 
H         1.454996943     1.488000035     1.463999987     2.028982401     0.000000000     0.000000000
H         1.812003136     1.488000035     1.463999987    -2.028982401     0.000000000     0.000000000
2
# Box:    3.0000    3.0000    3.0000 
H         1.450655460     1.488000035     1.463999987    -1.939193726     0.000000000     0.000000000
H         1.816344500     1.488000035     1.463999987     1.939193726     0.000000000     0.000000000
2
# Box:    3.0000    3.0000    3.0000 
H         1.447121620     1.488000035     1.463999987    -1.692193031     0.000000000     0.000000000
H         1.819878459     1.488000035     1.463999987     1.692193031     0.000000000     0.000000000
2
# Box:    3.0000    3.0000    3.0000 
H         1.444038510     1.488000035     1.463999987     3.428905964     0.000000000     0.000000000
H         1.822964907     1.488000035     1.463999987    -3.428905964     0.000000000     0.000000000
2
# Box:    3.0000    3.0000    3.0000 
H         1.440931320     1.488000035     1.463999987     1.789949656     0.000000000     0.000000000
H         1.826068759     1.488000035     1.463999987    -1.789949656     0.000000000     0.000000000
2
# Box:    3.0000    3.0000    3.0000 
H         0.330556482     1.488000035     1.463999987     4.474879742     0.000000000     0.000000000
H         2.936448336     1.488000035     1.463999987    -4.474879742     0.000000000     0.000000000
2
# Box:    3.0000    3.0000    3.0000 
H         1.432156682     1.488000035     1.463999987     2.423565388     0.000000000     0.000000000
H         1.834843278     1.488000035     1.463999987    -2.423565388     0.000000000     0.000000000
2
# Box:    3.0000    3.0000    3.0000 
H         0.338901013     1.488000035     1.463999987     4.010388851     0.000000000     0.000000000
H         2.928104162     1.488000035     1.463999987    -4.010388851     0.000000000     0.000000000
2
# Box:    3.0000    3.0000    3.0000 
H         1.425289989     1.488000035     1.463999987    -1.824464202     0.000000000     0.000000000
H         1.841709971     1.488000035     1.463999987     1.824464202     0.000000000     0.000000000
2
# Box:    3.0000    3.0000    3.0000 
H         1.461176991     1.488000035     1.463999987     3.157041311     0.000000000     0.000000000
H         1.805822968     1.488000035     1.463999987    -3.157041311     0.000000000     0.000000000
2
# Box:    3.0000    3.0000    3.0000 
H         1.461176991     1.488000035     1.463999987     3.157041311     0.000000000     0.000000000
H         1.805822968     1.488000035     1.463999987    -3.157041311     0.000000000     0.000000000
2
# Box:    3.0000    3.0000    3.0000 
H         1.457757115     1.488000035     1.463999987    -0.572798073     0.000000000     0.000000000
H         1.809242845     1.488000035     1.463999987     0.572798073     0.000000000     0.000000000
2
# Box:    3.0000    3.0000    3.0000 
H         1.456559062     1.488000035     1.463999987     1.185084939     0.000000000     0.000000000
H         1.810440898     1.488000035     1.463999987    -1.185084939     0.000000000     0.000000000
2
# Box:    3.0000    3.0000    3.0000 
H         1.454996943     1.488000035     1.463999987     2.028982401     0.000000000     0.000000000
H         1.812003136     1.488000035     1.463999987    -2.028982401     0.000000000     0.000000000
2
# Box:    3.0000    3.0000    3.0000 
H         1.450655460     1.488000035     1.463999987    -1.939193726     0.000000000     0.000000000
H         1.816344500     1.488000035     1.463999987     1.939193726     0.000000000     0.000000000
2
# Box:    3.0000    3.0000    3.0000 
H         1.447121620     1.488000035     1.463999987    -1.692193031     0.000000000     0.000000000
H         1.819878459     1.488000035     1.463999987     1.692193031     0.000000000     0.000000000
2
# Box:    3.0000    3.0000    3.0000 
H         1.444038510     1.488000035     1.463999987     3.428905964     0.000000000     0.000000000
H         1.822964907     1.488000035     1.463999987    -3.428905964     0.000000000     0.000000000
2
# Box:    3.0000    3.0000    3.0000 
H         1.440931320     1.488000035     1.463999987     1.789949656     0.000000000     0.000000000
H         1.826068759     1.488000035     1.463999987    -1.789949656     0.000000000     0.000000000
2
# Box:    3.0000    3.0000    3.0000 
H         0.330556482     1.488000035     1.463999987     4.474879742     0.000000000     0.000000000
H         2.936448336     1.488000035     1.463999987    -4.474879742     0.000000000     0.000000000
2
# Box:    3.0000    3.0000    3.0000 
H         1.432156682     1.488000035     1.463999987     2.423565388     0.000000000     0.000000000
H         1.834843278     1.488000035     1.463999987    -2.423565388     0.000000000     0.000000000
2
# Box:    3.0000    3.0000    3.0000 
H         0.338901013     1.488000035     1.463999987     4.010388851     0.000000000     0.000000000
H         2.928104162     1.488000035     1.463999987    -4.010388851     0.000000000     0.000000000
2
# Box:    3.0000    3.0000    3.0000 
H         1.425289989     1.488000035     1.463999987    -1.824464202     0.000000000     0.000000000
H         1.841709971     1.488000035     1.463999987     1.824464202     0.000000000     0.000000000
2
# Box:    3.0000    3.0000    3.0000 
H         1.461176991     1.488000035     1.463999987     3.157041311     0.000000000     0.000000000
H         1.805822968     1.488000035     1.463999987    -3.157041311     0.000000000     0.000000000
