2
# Step: 0 Box:    3.0000    3.0000    3.0000
H        -0.169287099    -0.050171797     0.523516100    -0.761724394    -2.498757940    -1.115922208
H         0.105024742     0.078384885     0.175597523    -1.854200649     0.837661379    -1.496554619
2
# Step: 1 Box:    3.0000    3.0000    3.0000
H        -0.170697707    -0.055120787     0.521160314    -0.604775744    -2.435476109    -1.268212021
H         0.101240102     0.079993083     0.172738774    -1.940063965     0.793913823    -1.349655678
2
# Step: 2 Box:    3.0000    3.0000    3.0000
H        -0.171858234    -0.059920487     0.518499466    -0.540344580    -2.351989250    -1.371377507
H         0.097316202     0.081465515     0.170140040    -2.000864519     0.688363939    -1.242733941
2
# Step: 3 Box:    3.0000    3.0000    3.0000
H        -0.172859968    -0.064573766     0.515633886    -0.466775433    -2.323220550    -1.485848201
H         0.093225739     0.082763944     0.167826561    -2.113341554     0.603162182    -1.111372521
2
# Step: 4 Box:    3.0000    3.0000    3.0000
H        -0.173748185    -0.069243669     0.512532380    -0.406896417    -2.337560358    -1.585903530
H         0.088953366     0.083960125     0.165683492    -2.169281871     0.614652089    -1.019193789
2
# Step: 5 Box:    3.0000    3.0000    3.0000
H        -0.174437188    -0.073841204     0.509305856    -0.271662932    -2.262217846    -1.665999624
H         0.084570931     0.085125464     0.163784373    -2.190157741     0.536342050    -0.888860963
2
# Step: 6 Box:    3.0000    3.0000    3.0000
H        -0.174917921    -0.078356665     0.505777575    -0.222363649    -2.241044242    -1.845723491
H         0.080088004     0.086110152     0.162162817    -2.291957725     0.427543645    -0.722344150
2
# Step: 7 Box:    3.0000    3.0000    3.0000
H        -0.175277968    -0.082745004     0.501922622    -0.141978088    -2.167854497    -2.017204712
H         0.075417905     0.086884194     0.160892943    -2.359900975     0.348628802    -0.563490368
2
# Step: 8 Box:    3.0000    3.0000    3.0000
H        -0.175427732    -0.087014674     0.497684326    -0.022877073    -2.109022683    -2.206368702
H         0.070659430     0.087515529     0.159792643    -2.405277384     0.278761514    -0.511414021
2
# Step: 9 Box:    3.0000    3.0000    3.0000
H        -0.175292590    -0.091154874     0.493117975     0.133327040    -2.022458495    -2.378459148
H         0.065722416     0.087970070     0.158920078    -2.518537127     0.177756119    -0.345346514
2
# Step: 10 Box:    3.0000    3.0000    3.0000
H        -0.174892202    -0.095138501     0.488204692     0.233642019    -1.969284909    -2.515142774
H         0.060559669     0.088284926     0.158340985    -2.646223693     0.124767924    -0.195810464
2
# Step: 11 Box:    3.0000    3.0000    3.0000
H        -0.174300476    -0.098942445     0.483007123     0.347861056    -1.832649715    -2.671643796
H         0.055205403     0.088473872     0.158118088    -2.706811336     0.019598622    -0.036002103
2
# Step: 12 Box:    3.0000    3.0000    3.0000
H        -0.173505303    -0.102511266     0.477441922     0.465555726    -1.742255177    -2.873833692
H         0.049676771     0.088356798     0.158283758    -2.834944784    -0.106756836     0.160217091
2
# Step: 13 Box:    3.0000    3.0000    3.0000
H        -0.172492104    -0.105899817     0.471488309     0.565680568    -1.629858706    -3.100544860
H         0.043906799     0.087982470     0.158765178    -2.966136211    -0.266044817     0.350075910
2
# Step: 14 Box:    3.0000    3.0000    3.0000
H        -0.171226628    -0.109065671     0.465089165     0.704277868    -1.516693066    -3.292812636
H         0.037839246     0.087321934     0.159724409    -3.096973678    -0.390609295     0.594684923
