2
# Step: 0 Box:    3.0000    3.0000    3.0000
H        -0.143926042     0.003398303     0.530597807     1.923878021     2.828946580    -0.496806384
H         0.128298878     0.059817375     0.221329672     0.321861884    -1.045250624     3.205614382
2
# Step: 1 Box:    3.0000    3.0000    3.0000
H        -0.139861632     0.009075309     0.529353360     2.119552994     2.855878175    -0.721683640
H         0.128760253     0.057680541     0.227938342     0.111983173    -1.062440217     3.375439123
2
# Step: 2 Box:    3.0000    3.0000    3.0000
H        -0.135416201     0.014788376     0.527720481     2.316058829     2.864426701    -0.914218848
H         0.128764651     0.055459893     0.235040985    -0.107341574    -1.160407282     3.699435797
2
# Step: 3 Box:    3.0000    3.0000    3.0000
H        -0.130511293     0.020519025     0.525638497     2.592174449     2.877993085    -1.186085122
H         0.128354180     0.053104998     0.242713971    -0.280169571    -1.188993628     3.946366045
2
# Step: 4 Box:    3.0000    3.0000    3.0000
H        -0.125094316     0.026320303     0.523036994     2.817909721     2.926512315    -1.418757148
H         0.127512884     0.050723950     0.250920727    -0.558602838    -1.166806802     4.241694744
2
# Step: 5 Box:    3.0000    3.0000    3.0000
H        -0.119206322     0.032193257     0.519945828     3.068148491     2.958922329    -1.658780836
H         0.126092433     0.048350577     0.259692645    -0.846335153    -1.202810105     4.519870919
2
# Step: 6 Box:    3.0000    3.0000    3.0000
H        -0.112790797     0.038175534     0.516373596     3.317183116     3.005832640    -1.869144927
H         0.124254740     0.045953227     0.268954684    -0.969538573    -1.205267798     4.715061255
