2
# Step: 0 Box:    3.0000    3.0000    3.0000
H        -0.171226628    -0.109065671     0.465089165     0.704277868    -1.516693066    -3.292812636
H         0.037839246     0.087321934     0.159724409    -3.096973678    -0.390609295     0.594684923
2
# Step: 1 Box:    3.0000    3.0000    3.0000
H        -0.169641382    -0.112025924     0.458312819     0.870869592    -1.412372376    -3.474417121
H         0.031550431     0.086400347     0.161098994    -3.230984301    -0.564455230     0.816404944
2
# Step: 2 Box:    3.0000    3.0000    3.0000
H        -0.167738520    -0.114724548     0.451143671     1.021092110    -1.272634788    -3.721612065
H         0.024937060     0.085123904     0.162875976    -3.369635366    -0.705804812     0.996376719
2
# Step: 3 Box:    3.0000    3.0000    3.0000
H        -0.165532159    -0.117063529     0.443437122     1.187797423    -1.044751073    -4.007009263
H         0.018049969     0.083538857     0.165128637    -3.520404687    -0.862858048     1.260217584
2
# Step: 4 Box:    3.0000    3.0000    3.0000
H        -0.162937173    -0.118989694     0.435151812     1.370930835    -0.878186560    -4.306462247
H         0.010841598     0.081604826     0.167910667    -3.671858692    -1.065835134     1.516184770
2
# Step: 5 Box:    3.0000    3.0000    3.0000
H        -0.159942073    -0.120510338     0.426207508     1.597532835    -0.655662614    -4.608392387
H         0.003365612     0.079230307     0.171200939    -3.811614836    -1.301354497     1.785551913
2
# Step: 6 Box:    3.0000    3.0000    3.0000
H        -0.156620891    -0.121628948     0.416854547     1.705159692    -0.492958733    -4.754571101
H        -0.004474741     0.076481918     0.175029096    -4.029174866    -1.473673285     2.014326003
2
# Step: 7 Box:    3.0000    3.0000    3.0000
H        -0.153188892    -0.122521099     0.407206076     1.712399817    -0.436909010    -4.833195559
H        -0.012586799     0.073382549     0.179149866    -4.025674535    -1.582566192     2.044371555
