2
# Box:    3.0000    3.0000    3.0000 
H         1.461176991     1.488000035     1.463999987     3.157041311     0.000000000     0.000000000
H         1.805822968     1.488000035     1.463999987    -3.157041311     0.000000000     0.000000000
2
# Box:    3.0000    3.0000    3.0000 
H         1.457012773     1.488000035     1.463999987    -0.175577819     0.000000000     0.000000000
H         1.809987307     1.488000035     1.463999987     0.175577819     0.000000000     0.000000000
2
# Box:    3.0000    3.0000    3.0000 
H         1.452578902     1.488000035     1.463999987    -2.346941471     0.000000000     0.000000000
H         1.814421058     1.488000035     1.463999987     2.346941471     0.000000000     0.000000000
2
# Box:    3.0000    3.0000    3.0000 
H         1.447121620     1.488000035     1.463999987    -1.692193031     0.000000000     0.000000000
H         1.819878459     1.488000035     1.463999987     1.692193031     0.000000000     0.000000000
2
# Box:    3.0000    3.0000    3.0000 
H         1.442082286     1.488000035     1.463999987    -0.862755120     0.000000000     0.000000000
H         1.824917674     1.488000035     1.463999987     0.862755120     0.000000000     0.000000000
2
# Box:    3.0000    3.0000    3.0000 
H         1.435706615     1.488000035     1.463999987     0.881784260     0.000000000     0.000000000
H         1.831293344     1.488000035     1.463999987    -0.881784260     0.000000000     0.000000000
2
# Box:    3.0000    3.0000    3.0000 
H         0.338901013     1.488000035     1.463999987     4.010388851     0.000000000     0.000000000
H         2.928104162     1.488000035     1.463999987    -4.010388851     0.000000000     0.000000000
2
# Box:    3.0000    3.0000    3.0000 
H         1.417996764     1.488000035     1.463999987    -0.527467251     0.000000000     0.000000000
H         1.849003196     1.488000035     1.463999987     0.527467251     0.000000000     0.000000000
2
# Box:    3.0000    3.0000    3.0000 
H         1.411104441     1.488000035     1.463999987    -0.520638168     0.000000000     0.000000000
H         1.855895638     1.488000035     1.463999987     0.520638168     0.000000000     0.000000000
2
# Box:    3.0000    3.0000    3.0000 
H         0.361311466     1.488000035     1.463999987    -3.502593279     0.000000000     0.000000000
H         2.905691862     1.488000035     1.463999987     3.502593279     0.000000000     0.000000000
2
# Box:    3.0000    3.0000    3.0000 
H         1.385674357     1.488000035     1.463999987     2.240056753     0.000000000     0.000000000
H         1.881328940     1.488000035     1.463999987    -2.240056753     0.000000000     0.000000000
2
# Box:    3.0000    3.0000    3.0000 
H         1.461176991     1.488000035     1.463999987     3.157041311     0.000000000     0.000000000
H         1.805822968     1.488000035     1.463999987    -3.157041311     0.000000000     0.000000000
2
# Box:    3.0000    3.0000    3.0000 
H         1.461176991     1.488000035     1.463999987     3.157041311     0.000000000     0.000000000
H         1.805822968     1.488000035     1.463999987    -3.157041311     0.000000000     0.000000000
2
# Box:    3.0000    3.0000    3.0000 
H         1.457012773     1.488000035     1.463999987    -0.175577819     0.000000000     0.000000000
H         1.809987307     1.488000035     1.463999987     0.175577819     0.000000000     0.000000000
2
# Box:    3.0000    3.0000    3.0000 
H         1.452578902     1.488000035     1.463999987    -2.346941471     0.000000000     0.000000000
H         1.814421058     1.488000035     1.463999987     2.346941471     0.000000000     0.000000000
2
# Box:    3.0000    3.0000    3.0000 
H         1.447121620     1.488000035     1.463999987    -1.692193031     0.000000000     0.000000000
H         1.819878459     1.488000035     1.463999987     1.692193031     0.000000000     0.000000000
2
# Box:    3.0000    3.0000    3.0000 
H         1.442082286     1.488000035     1.463999987    -0.862755120     0.000000000     0.000000000
H         1.824917674     1.488000035     1.463999987     0.862755120     0.000000000     0.000000000
2
# Box:    3.0000    3.0000    3.0000 
H         1.435706615     1.488000035     1.463999987     0.881784260     0.000000000     0.000000000
H         1.831293344     1.488000035     1.463999987    -0.881784260     0.000000000     0.000000000
2
# Box:    3.0000    3.0000    3.0000 
H         0.338901013     1.488000035     1.463999987     4.010388851     0.000000000     0.000000000
H         2.928104162     1.488000035     1.463999987    -4.010388851     0.000000000     0.000000000
2
# Box:    3.0000    3.0000    3.0000 
H         1.417996764     1.488000035     1.463999987    -0.527467251     0.000000000     0.000000000
H         1.849003196     1.488000035     1.463999987     0.527467251     0.000000000     0.000000000
2
# Box:    3.0000    3.0000    3.0000 
H         1.411104441     1.488000035     1.463999987    -0.520638168     0.000000000     0.000000000
H         1.855895638     1.488000035     1.463999987     0.520638168     0.000000000     0.000000000
2
# Box:    3.0000    3.0000    3.0000 
H         0.361311466     1.488000035     1.463999987    -3.502593279     0.000000000     0.000000000
H         2.905691862     1.488000035     1.463999987     3.502593279     0.000000000     0.000000000
2
# Box:    3.0000    3.0000    3.0000 
H         1.385674357     1.488000035     1.463999987     2.240056753     0.000000000     0.000000000
H         1.881328940     1.488000035     1.463999987    -2.240056753     0.000000000     0.000000000
2
# Box:    3.0000    3.0000    3.0000 
H         1.461176991     1.488000035     1.463999987     3.157041311     0.000000000     0.000000000
H         1.805822968     1.488000035     1.463999987    -3.157041311     0.000000000     0.000000000
