2
# Step: 0 Box:    3.0000    3.0000    3.0000
H        -0.027700808    -0.011819603     0.111075730     1.239782836    -2.821120161     0.473288538
H         0.340888739     0.046049656     0.033518551     2.471871732     1.052771568    -1.585109435
2
# Step: 1 Box:    3.0000    3.0000    3.0000
H        -0.024866933    -0.017483792     0.111923267     1.630738516    -2.806006470     0.371378212
H         0.345479090     0.048099601     0.030484786     2.097201958     0.994901220    -1.479358365
2
# Step: 2 Box:    3.0000    3.0000    3.0000
H        -0.021215165    -0.023040414     0.112613610     2.024976992    -2.743349808     0.293226019
H         0.349266242     0.050074192     0.027567627     1.693312144     0.983180605    -1.420431252
2
# Step: 3 Box:    3.0000    3.0000    3.0000
H        -0.016833358    -0.028503264     0.113156039     2.387685292    -2.724078495     0.234537878
H         0.352262311     0.051964576     0.024886846     1.290733268     0.915513740    -1.285790555
2
# Step: 4 Box:    3.0000    3.0000    3.0000
H        -0.011677073    -0.033908529     0.113551923     2.781235307    -2.668724790     0.129522331
H         0.354479021     0.053754612     0.022354629     0.949115178     0.859424863    -1.227659018
2
# Step: 5 Box:    3.0000    3.0000    3.0000
H        -0.005756502    -0.039113732     0.113735342     3.137642125    -2.532107920     0.074167783
H         0.355966919     0.055398598     0.019963722     0.575607892     0.786587288    -1.148967873
2
# Step: 6 Box:    3.0000    3.0000    3.0000
H         0.000886871    -0.044131824     0.113795755     3.489118224    -2.482130722    -0.015211900
H         0.356765384     0.056890564     0.017743855     0.213014275     0.709661327    -1.070690143
2
# Step: 7 Box:    3.0000    3.0000    3.0000
H         0.008234255    -0.049011646     0.113651929     3.853030833    -2.391197615    -0.132720495
H         0.356855593     0.058245209     0.015748516    -0.146405570     0.649086956    -0.932051964
