2
# Step: 0 Box:    3.0000    3.0000    3.0000
H        -0.029825199    -0.006162816     0.110031357    -0.857874876     2.859676046    -0.558505994
H         0.335589207     0.043846367     0.036817078    -2.865417997    -1.114546606     1.697114276
2
# Step: 1 Box:    3.0000    3.0000    3.0000
H        -0.031104437    -0.000328759     0.108894515    -0.444182132     2.987700991    -0.591288616
H         0.329484621     0.041565194     0.040305911    -3.258613119    -1.164460736     1.785014062
2
# Step: 2 Box:    3.0000    3.0000    3.0000
H        -0.031587925     0.005614362     0.107610698    -0.047378660     2.971631749    -0.670753167
H         0.322648822     0.039138919     0.043985104    -3.580284494    -1.242309390     1.883335817
2
# Step: 3 Box:    3.0000    3.0000    3.0000
H        -0.031343791     0.011606398     0.106171122     0.288308653     2.987409589    -0.751151265
H         0.315184464     0.036551780     0.047829639    -3.883833634    -1.338564351     1.982721733
2
# Step: 4 Box:    3.0000    3.0000    3.0000
H        -0.030495140     0.017623871     0.104598113     0.542274540     3.047278559    -0.810898297
H         0.307183873     0.033865446     0.051873999    -4.113137014    -1.376689617     2.062038096
