4
# Step: 0 Box:    8.0000    8.0000    8.0000 
H         2.856402043     0.159457250     0.368718415    -0.000753642     0.001720966     0.000192881
H         2.059835020     0.678040970     0.607750289    -0.000562122     0.001095174     0.000219515
H         1.759339536    -0.208167171     0.887706913     0.001641328    -0.000965131    -0.000635825
H         2.047856063    -0.587208421     0.053107753    -0.000325563    -0.001851009     0.000223429
4
# Step: 1 Box:    8.0000    8.0000    8.0000 
H         2.882708579     0.393527723     0.348865868     0.001146646     0.002442471    -0.000524335
H         1.980560575     0.684359112     0.609868747    -0.001039795    -0.001184729    -0.000128019
H         1.829374861    -0.267721220     0.953422030     0.000132039    -0.000408823     0.000731702
H         2.030788756    -0.768042988     0.005126725    -0.000238889    -0.000848919    -0.000079348
4
# Step: 2 Box:    8.0000    8.0000    8.0000 
H         2.945828719     0.642815621     0.319393395    -0.000667208     0.001752393     0.000235766
H         1.909955633     0.546095891     0.539907496     0.000058371    -0.000855223    -0.001214811
H         1.887733116    -0.390921537     0.947911793     0.001045849    -0.001159011     0.000316999
H         1.979915413    -0.755867347     0.110070686    -0.000437011     0.000261841     0.000662046
