1
# Step: 0 Box:       inf    0.0000    0.0000 
H        -0.301934945     0.000000000     0.000000000    -0.117089291     0.093908860     0.008867844
1
# Step: 1 Box:       inf    0.0000    0.0000 
H        -0.305062828     0.000000000     0.000000000    -0.131925687     0.093908860     0.008867844
1
# Step: 2 Box:       inf    0.0000    0.0000 
H        -0.308820795     0.000000000     0.000000000    -0.153367681     0.093908860     0.008867844
1
# Step: 3 Box:       inf    0.0000    0.0000 
H        -0.312896506     0.000000000     0.000000000    -0.184771180     0.093908860     0.008867844
1
# Step: 4 Box:       inf    0.0000    0.0000 
H        -0.317430098     0.000000000     0.000000000    -0.190412292     0.093908860     0.008867844
1
# Step: 5 Box:       inf    0.0000    0.0000 
H        -0.322742133     0.000000000     0.000000000    -0.228292572     0.093908860     0.008867844
1
# Step: 6 Box:       inf    0.0000    0.0000 
H        -0.328798054     0.000000000     0.000000000    -0.243040477     0.093908860     0.008867844
1
# Step: 7 Box:       inf    0.0000    0.0000 
H        -0.335383432     0.000000000     0.000000000    -0.289200907     0.093908860     0.008867844
1
# Step: 8 Box:       inf    0.0000    0.0000 
H        -0.343041688     0.000000000     0.000000000    -0.347712055     0.093908860     0.008867844
1
# Step: 9 Box:       inf    0.0000    0.0000 
H        -0.352089328     0.000000000     0.000000000    -0.371053962     0.093908860     0.008867844
1
# Step: 10 Box:       inf    0.0000    0.0000 
H        -0.360678362     0.000000000     0.000000000    -0.346036540     0.093908860     0.008867844
1
# Step: 11 Box:       inf    0.0000    0.0000 
H        -0.369888914     0.000000000     0.000000000    -0.380407417     0.093908860     0.008867844
1
# Step: 12 Box:       inf    0.0000    0.0000 
H        -0.380188504     0.000000000     0.000000000    -0.424560331     0.093908860     0.008867844
1
# Step: 13 Box:       inf    0.0000    0.0000 
H        -0.390892410     0.000000000     0.000000000    -0.406647253     0.093908860     0.008867844
1
# Step: 14 Box:       inf    0.0000    0.0000 
H        -0.402223686     0.000000000     0.000000000    -0.477812850     0.093908860     0.008867844
1
# Step: 15 Box:       inf    0.0000    0.0000 
H        -0.414799086     0.000000000     0.000000000    -0.514517699     0.093908860     0.008867844
1
# Step: 16 Box:       inf    0.0000    0.0000 
H        -0.427730205     0.000000000     0.000000000    -0.522847638     0.093908860     0.008867844
1
# Step: 17 Box:       inf    0.0000    0.0000 
H        -0.442443621     0.000000000     0.000000000    -0.621357111     0.093908860     0.008867844
1
# Step: 18 Box:       inf    0.0000    0.0000 
H        -0.458740922     0.000000000     0.000000000    -0.662597156     0.093908860     0.008867844
1
# Step: 19 Box:       inf    0.0000    0.0000 
H        -0.475498078     0.000000000     0.000000000    -0.694594453     0.093908860     0.008867844
1
# Step: 20 Box:       inf    0.0000    0.0000 
H        -0.493334435     0.000000000     0.000000000    -0.745807626     0.093908860     0.008867844
1
# Step: 21 Box:       inf    0.0000    0.0000 
H        -0.512954594     0.000000000     0.000000000    -0.823455729     0.093908860     0.008867844
