1
# Step: 0 Box:       inf    0.0000    0.0000 
H        -0.999173400     0.000000000     0.000000000    -0.636897422     0.120946149     0.328386263
1
# Step: 1 Box:       inf    0.0000    0.0000 
H        -1.015031656     0.000000000     0.000000000    -0.627228772     0.120946149     0.328386263
1
# Step: 2 Box:       inf    0.0000    0.0000 
H        -1.030622769     0.000000000     0.000000000    -0.642428841     0.120946149     0.328386263
1
# Step: 3 Box:       inf    0.0000    0.0000 
H        -1.046146999     0.000000000     0.000000000    -0.599306024     0.120946149     0.328386263
1
# Step: 4 Box:       inf    0.0000    0.0000 
H        -1.060428666     0.000000000     0.000000000    -0.571094663     0.120946149     0.328386263
1
# Step: 5 Box:       inf    0.0000    0.0000 
H        -1.073960106     0.000000000     0.000000000    -0.516332095     0.120946149     0.328386263
1
# Step: 6 Box:       inf    0.0000    0.0000 
H        -1.087508513     0.000000000     0.000000000    -0.545713178     0.120946149     0.328386263
1
# Step: 7 Box:       inf    0.0000    0.0000 
H        -1.100668535     0.000000000     0.000000000    -0.516660119     0.120946149     0.328386263
1
# Step: 8 Box:       inf    0.0000    0.0000 
H        -1.113362112     0.000000000     0.000000000    -0.496982420     0.120946149     0.328386263
1
# Step: 9 Box:       inf    0.0000    0.0000 
H        -1.125430696     0.000000000     0.000000000    -0.483283310     0.120946149     0.328386263
1
# Step: 10 Box:       inf    0.0000    0.0000 
H        -1.137155803     0.000000000     0.000000000    -0.481085319     0.120946149     0.328386263
1
# Step: 11 Box:       inf    0.0000    0.0000 
H        -1.149049993     0.000000000     0.000000000    -0.468236169     0.120946149     0.328386263
1
# Step: 12 Box:       inf    0.0000    0.0000 
H        -1.160679112     0.000000000     0.000000000    -0.439664164     0.120946149     0.328386263
1
# Step: 13 Box:       inf    0.0000    0.0000 
H        -1.171561134     0.000000000     0.000000000    -0.434467434     0.120946149     0.328386263
1
# Step: 14 Box:       inf    0.0000    0.0000 
H        -1.180868344     0.000000000     0.000000000    -0.349786941     0.120946149     0.328386263
1
# Step: 15 Box:       inf    0.0000    0.0000 
H        -1.188966678     0.000000000     0.000000000    -0.303204764     0.120946149     0.328386263
1
# Step: 16 Box:       inf    0.0000    0.0000 
H        -1.195763169     0.000000000     0.000000000    -0.234008424     0.120946149     0.328386263
1
# Step: 17 Box:       inf    0.0000    0.0000 
H        -1.199987032     0.000000000     0.000000000    -0.126345043     0.120946149     0.328386263
1
# Step: 18 Box:       inf    0.0000    0.0000 
H        -1.202312922     0.000000000     0.000000000    -0.054082107     0.120946149     0.328386263
1
# Step: 19 Box:       inf    0.0000    0.0000 
H        -1.202959265     0.000000000     0.000000000     0.012741495     0.120946149     0.328386263
1
# Step: 20 Box:       inf    0.0000    0.0000 
H        -1.202822375     0.000000000     0.000000000    -0.003723523     0.120946149     0.328386263
1
# Step: 21 Box:       inf    0.0000    0.0000 
H        -1.202386915     0.000000000     0.000000000     0.037187406     0.120946149     0.328386263
1
# Step: 22 Box:       inf    0.0000    0.0000 
H        -1.200431904     0.000000000     0.000000000     0.135504947     0.120946149     0.328386263
1
# Step: 23 Box:       inf    0.0000    0.0000 
H        -1.195360903     0.000000000     0.000000000     0.292811861     0.120946149     0.328386263
1
# Step: 24 Box:       inf    0.0000    0.0000 
H        -1.187480114     0.000000000     0.000000000     0.338781199     0.120946149     0.328386263
1
# Step: 25 Box:       inf    0.0000    0.0000 
H        -1.178258808     0.000000000     0.000000000     0.408754843     0.120946149     0.328386263
1
# Step: 26 Box:       inf    0.0000    0.0000 
H        -1.167022391     0.000000000     0.000000000     0.470900960     0.120946149     0.328386263
1
# Step: 27 Box:       inf    0.0000    0.0000 
H        -1.154421618     0.000000000     0.000000000     0.556073602     0.120946149     0.328386263
1
# Step: 28 Box:       inf    0.0000    0.0000 
H        -1.139595119     0.000000000     0.000000000     0.621247664     0.120946149     0.328386263
1
# Step: 29 Box:       inf    0.0000    0.0000 
H        -1.123987021     0.000000000     0.000000000     0.609617074     0.120946149     0.328386263
1
# Step: 30 Box:       inf    0.0000    0.0000 
H        -1.109017775     0.000000000     0.000000000     0.614793674     0.120946149     0.328386263
1
# Step: 31 Box:       inf    0.0000    0.0000 
H        -1.093613092     0.000000000     0.000000000     0.599478748     0.120946149     0.328386263
1
# Step: 32 Box:       inf    0.0000    0.0000 
H        -1.078296201     0.000000000     0.000000000     0.639416553     0.120946149     0.328386263
1
# Step: 33 Box:       inf    0.0000    0.0000 
H        -1.061910024     0.000000000     0.000000000     0.685209479     0.120946149     0.328386263
1
# Step: 34 Box:       inf    0.0000    0.0000 
H        -1.043943474     0.000000000     0.000000000     0.723800444     0.120946149     0.328386263
1
# Step: 35 Box:       inf    0.0000    0.0000 
H        -1.025310588     0.000000000     0.000000000     0.753257501     0.120946149     0.328386263
1
# Step: 36 Box:       inf    0.0000    0.0000 
H        -1.006780700     0.000000000     0.000000000     0.733872358     0.120946149     0.328386263
1
# Step: 37 Box:       inf    0.0000    0.0000 
H        -0.988339352     0.000000000     0.000000000     0.767225420     0.120946149     0.328386263
