1
# Step: 0 Box:       inf    0.0000    0.0000 
H         0.297364716     0.000000000     0.000000000    -0.005091205    -0.153187060     0.094301052
1
# Step: 1 Box:       inf    0.0000    0.0000 
H         0.298275045     0.000000000     0.000000000     0.077141968    -0.153187060     0.094301052
1
# Step: 2 Box:       inf    0.0000    0.0000 
H         0.300768568     0.000000000     0.000000000     0.139436303    -0.153187060     0.094301052
1
# Step: 3 Box:       inf    0.0000    0.0000 
H         0.304729189     0.000000000     0.000000000     0.151129067    -0.153187060     0.094301052
1
# Step: 4 Box:       inf    0.0000    0.0000 
H         0.308432158     0.000000000     0.000000000     0.144038202    -0.153187060     0.094301052
1
# Step: 5 Box:       inf    0.0000    0.0000 
H         0.312791523     0.000000000     0.000000000     0.195234420    -0.153187060     0.094301052
1
# Step: 6 Box:       inf    0.0000    0.0000 
H         0.317591429     0.000000000     0.000000000     0.173475985    -0.153187060     0.094301052
1
# Step: 7 Box:       inf    0.0000    0.0000 
H         0.321623187     0.000000000     0.000000000     0.145235699    -0.153187060     0.094301052
1
# Step: 8 Box:       inf    0.0000    0.0000 
H         0.326126449     0.000000000     0.000000000     0.191356988    -0.153187060     0.094301052
1
# Step: 9 Box:       inf    0.0000    0.0000 
H         0.331787823     0.000000000     0.000000000     0.248155057    -0.153187060     0.094301052
1
# Step: 10 Box:       inf    0.0000    0.0000 
H         0.338255246     0.000000000     0.000000000     0.278311123    -0.153187060     0.094301052
1
# Step: 11 Box:       inf    0.0000    0.0000 
H         0.346533575     0.000000000     0.000000000     0.369745709    -0.153187060     0.094301052
1
# Step: 12 Box:       inf    0.0000    0.0000 
H         0.355523746     0.000000000     0.000000000     0.376078889    -0.153187060     0.094301052
1
# Step: 13 Box:       inf    0.0000    0.0000 
H         0.365012011     0.000000000     0.000000000     0.413357638    -0.153187060     0.094301052
1
# Step: 14 Box:       inf    0.0000    0.0000 
H         0.375740297     0.000000000     0.000000000     0.470992221    -0.153187060     0.094301052
1
# Step: 15 Box:       inf    0.0000    0.0000 
H         0.388067315     0.000000000     0.000000000     0.512428485    -0.153187060     0.094301052
1
# Step: 16 Box:       inf    0.0000    0.0000 
H         0.401625631     0.000000000     0.000000000     0.591336799    -0.153187060     0.094301052
