2
# Step: 0 Box:    3.0000    3.0000    3.0000
H         0.019718837     0.022246321     0.028961034     0.544398355    -0.464281888     0.045660636
H         0.402169436    -0.041469645    -0.086201502    -3.214496954     1.401651067    -1.675188996
2
# Step: 1 Box:    3.0000    3.0000    3.0000
H         0.021184062     0.021247439     0.028929840     0.901875940    -0.545368648    -0.042499177
H         0.395472180    -0.038647177    -0.089461169    -3.482495736     1.411528422    -1.592345418
2
# Step: 2 Box:    3.0000    3.0000    3.0000
H         0.023363365     0.020135661     0.028724938     1.252048061    -0.560637906    -0.172917435
H         0.388224487    -0.035779129    -0.092559213    -3.782100808     1.473441552    -1.524084523
2
# Step: 3 Box:    3.0000    3.0000    3.0000
H         0.026248160     0.018925195     0.028293539     1.620256990    -0.630151829    -0.244192562
H         0.380255023    -0.032767409    -0.095564487    -4.187562369     1.535177705    -1.478981204
2
# Step: 4 Box:    3.0000    3.0000    3.0000
H         0.029857290     0.017560429     0.027624658     1.954676807    -0.749095514    -0.415531931
H         0.371494722    -0.029696019    -0.098391058    -4.574943027     1.550682378    -1.346408447
2
# Step: 5 Box:    3.0000    3.0000    3.0000
H         0.034131125     0.016001029     0.026660465     2.310526794    -0.790791907    -0.539306090
H         0.362026040    -0.026543454    -0.100961725    -4.898401205     1.584186599    -1.221646065
2
# Step: 6 Box:    3.0000    3.0000    3.0000
H         0.039047979     0.014350172     0.025504142     2.572668655    -0.833904960    -0.609603357
H         0.351996201    -0.023363940    -0.103331350    -5.085739645     1.573334577    -1.133811012
