2
# Step: 0 Box:    3.0000    3.0000    3.0000
H         0.023027391     0.025458211     0.025484542     1.046179605     0.040118190    -0.405243645
H         0.431328379    -0.056597320    -0.062681070     1.665952976    -1.169864899     2.111880376
2
# Step: 1 Box:    3.0000    3.0000    3.0000
H         0.025351450     0.025471379     0.024582761     1.287208483    -0.005050275    -0.478516488
H         0.434339331    -0.058905377    -0.058445496     1.369594531    -1.118571511     2.091209850
2
# Step: 2 Box:    3.0000    3.0000    3.0000
H         0.028139154     0.025400529     0.023553166     1.510675873    -0.078322374    -0.538524029
H         0.436843600    -0.061041347    -0.054239933     1.132825376    -1.010682588     2.113409081
2
# Step: 3 Box:    3.0000    3.0000    3.0000
H         0.031405557     0.025201527     0.022420309     1.767020185    -0.121462696    -0.576807655
H         0.438811108    -0.063087722    -0.049975431     0.849520997    -1.013524499     2.172969272
2
# Step: 4 Box:    3.0000    3.0000    3.0000
H         0.035172222     0.024931362     0.021225364     2.014280344    -0.159531380    -0.620363147
H         0.440258263    -0.065097759    -0.045573631     0.607153544    -0.990011292     2.208003221
2
# Step: 5 Box:    3.0000    3.0000    3.0000
H         0.039540107     0.024506924     0.020003034     2.343420837    -0.266162470    -0.611049913
H         0.441161718    -0.067067188    -0.041150429     0.305090696    -0.961494156     2.227497052
2
# Step: 6 Box:    3.0000    3.0000    3.0000
H         0.044507592     0.023930027     0.018688915     2.624968182    -0.328763418    -0.668731552
H         0.441425528    -0.068899377    -0.036683271    -0.005588889    -0.886692914     2.286672619
2
# Step: 7 Box:    3.0000    3.0000    3.0000
H         0.050034573     0.023190185     0.017280006     2.939152593    -0.437859265    -0.721521638
H         0.441109505    -0.070664196    -0.032123355    -0.299699090    -0.865753619     2.304565347
