1
# Box:    0.0000    0.0000    0.0000
H        -1.007000000     0.000000000     0.000000000     0.000000000     0.000000000     0.000000000
1
# Box:    0.0000    0.0000    0.0000
H        -0.964000000     0.000000000     0.000000000     0.000000000     0.000000000     0.000000000
1
# Box:    0.0000    0.0000    0.0000
H        -0.921000000     0.000000000     0.000000000     0.000000000     0.000000000     0.000000000
1
# Box:    0.0000    0.0000    0.0000
H        -0.879000000     0.000000000     0.000000000     0.000000000     0.000000000     0.000000000
1
# Box:    0.0000    0.0000    0.0000
H        -0.836000000     0.000000000     0.000000000     0.000000000     0.000000000     0.000000000
1
# Box:    0.0000    0.0000    0.0000
H        -0.793000000     0.000000000     0.000000000     0.000000000     0.000000000     0.000000000
1
# Box:    0.0000    0.0000    0.0000
H        -0.750000000     0.000000000     0.000000000     0.000000000     0.000000000     0.000000000
1
# Box:    0.0000    0.0000    0.0000
H        -0.707000000     0.000000000     0.000000000     0.000000000     0.000000000     0.000000000
1
# Box:    0.0000    0.0000    0.0000
H        -0.664000000     0.000000000     0.000000000     0.000000000     0.000000000     0.000000000
1
# Box:    0.0000    0.0000    0.0000
H        -0.621000000     0.000000000     0.000000000     0.000000000     0.000000000     0.000000000
1
# Box:    0.0000    0.0000    0.0000
H        -0.579000000     0.000000000     0.000000000     0.000000000     0.000000000     0.000000000
1
# Box:    0.0000    0.0000    0.0000
H        -0.536000000     0.000000000     0.000000000     0.000000000     0.000000000     0.000000000
1
# Box:    0.0000    0.0000    0.0000
H        -0.493000000     0.000000000     0.000000000     0.000000000     0.000000000     0.000000000
1
# Box:    0.0000    0.0000    0.0000
H        -0.450000000     0.000000000     0.000000000     0.000000000     0.000000000     0.000000000
1
# Box:    0.0000    0.0000    0.0000
H        -0.407000000     0.000000000     0.000000000     0.000000000     0.000000000     0.000000000
1
# Box:    0.0000    0.0000    0.0000
H        -0.364000000     0.000000000     0.000000000     0.000000000     0.000000000     0.000000000
1
# Box:    0.0000    0.0000    0.0000
H        -0.279000000     0.000000000     0.000000000     0.000000000     0.000000000     0.000000000
1
# Box:    0.0000    0.0000    0.0000
H        -1.007000000     0.000000000     0.000000000     0.000000000     0.000000000     0.000000000
