1
# Step: 0 Box:       inf    0.0000    0.0000 
H        -0.462982953     0.000000000     0.000000000    -0.270684027    -0.377086243     0.421270965
1
# Step: 1 Box:       inf    0.0000    0.0000 
H        -0.469712120     0.000000000     0.000000000    -0.300358904    -0.377086243     0.421270965
1
# Step: 2 Box:       inf    0.0000    0.0000 
H        -0.477592171     0.000000000     0.000000000    -0.323084923    -0.377086243     0.421270965
1
# Step: 3 Box:       inf    0.0000    0.0000 
H        -0.486279719     0.000000000     0.000000000    -0.368206719    -0.377086243     0.421270965
1
# Step: 4 Box:       inf    0.0000    0.0000 
H        -0.496854659     0.000000000     0.000000000    -0.422645864    -0.377086243     0.421270965
1
# Step: 5 Box:       inf    0.0000    0.0000 
H        -0.507572027     0.000000000     0.000000000    -0.420418597    -0.377086243     0.421270965
1
# Step: 6 Box:       inf    0.0000    0.0000 
H        -0.518653084     0.000000000     0.000000000    -0.460620337    -0.377086243     0.421270965
1
# Step: 7 Box:       inf    0.0000    0.0000 
H        -0.531310187     0.000000000     0.000000000    -0.552578619    -0.377086243     0.421270965
1
# Step: 8 Box:       inf    0.0000    0.0000 
H        -0.545858142     0.000000000     0.000000000    -0.606135526    -0.377086243     0.421270965
1
# Step: 9 Box:       inf    0.0000    0.0000 
H        -0.561363672     0.000000000     0.000000000    -0.634795068    -0.377086243     0.421270965
1
# Step: 10 Box:       inf    0.0000    0.0000 
H        -0.577572723     0.000000000     0.000000000    -0.658374300    -0.377086243     0.421270965
1
# Step: 11 Box:       inf    0.0000    0.0000 
H        -0.594101180     0.000000000     0.000000000    -0.699695111    -0.377086243     0.421270965
1
# Step: 12 Box:       inf    0.0000    0.0000 
H        -0.611451697     0.000000000     0.000000000    -0.705198739    -0.377086243     0.421270965
