2
# Step: 0 Box:    3.0000    3.0000    3.0000
H         0.027685306    -0.040747389     0.067068301    -0.707289725    -2.209538561    -1.387815617
H         0.370522872     0.029866767     0.027610311     2.951172886    -0.642693608    -0.675550895
2
# Step: 1 Box:    3.0000    3.0000    3.0000
H         0.026586528    -0.045114971     0.064215808    -0.400176766    -2.162834418    -1.476270740
H         0.376142412     0.028516602     0.026283143     2.651171088    -0.723525851    -0.644128300
2
# Step: 2 Box:    3.0000    3.0000    3.0000
H         0.026151975    -0.049451635     0.061254002    -0.024534822    -2.180405444    -1.494929581
H         0.381048428     0.026987032     0.025049380     2.247792913    -0.822435326    -0.573189795
2
# Step: 3 Box:    3.0000    3.0000    3.0000
H         0.026462521    -0.053676728     0.058234240     0.316759546    -2.071307181    -1.513334102
H         0.385127581     0.025233747     0.023928624     1.791018435    -0.914955547    -0.535731964
2
# Step: 4 Box:    3.0000    3.0000    3.0000
H         0.027453157    -0.057752234     0.055160188     0.698907351    -1.998605153    -1.553553977
H         0.388380693     0.023321058     0.022939518     1.440110903    -1.001918686    -0.459765305
2
# Step: 5 Box:    3.0000    3.0000    3.0000
H         0.029202714    -0.061672651     0.051966427     1.071472912    -1.941481041    -1.612401910
H         0.390954940     0.021144335     0.022024981     1.109640486    -1.155860849    -0.438405955
2
# Step: 6 Box:    3.0000    3.0000    3.0000
H         0.031707443    -0.065461907     0.048690748     1.409493172    -1.847426630    -1.663732043
H         0.392767203     0.018726280     0.021134288     0.722259553    -1.276269080    -0.422618407
2
# Step: 7 Box:    3.0000    3.0000    3.0000
H         0.034890699    -0.069034011     0.045340482     1.773459436    -1.749026845    -1.708961688
H         0.393803933     0.016058626     0.020268695     0.334128598    -1.381014008    -0.428471553
2
# Step: 8 Box:    3.0000    3.0000    3.0000
H         0.038813801    -0.072460519     0.041910029     2.154721347    -1.674170092    -1.732717344
H         0.394109388     0.013168544     0.019399076    -0.081854251    -1.479839221    -0.410802709
2
# Step: 9 Box:    3.0000    3.0000    3.0000
H         0.043468631    -0.075737051     0.038434635     2.469035758    -1.612768790    -1.739645534
H         0.393558255     0.010066106     0.018551109    -0.450494959    -1.624755784    -0.418427959
2
# Step: 10 Box:    3.0000    3.0000    3.0000
H         0.048738508    -0.078888340     0.034955429     2.803606318    -1.513784445    -1.720798713
H         0.392252730     0.006714468     0.017691580    -0.810969129    -1.721603135    -0.448251382
2
# Step: 11 Box:    3.0000    3.0000    3.0000
H         0.054623752    -0.081848078     0.031470501     3.070093659    -1.442844947    -1.781679208
H         0.390351230     0.003195314     0.016786761    -1.061364038    -1.782754304    -0.474139326
2
# Step: 12 Box:    3.0000    3.0000    3.0000
H         0.060883651    -0.084706564     0.027975755     3.143410059    -1.424366727    -1.722376550
H         0.388053519    -0.000436989     0.015852815    -1.190246741    -1.875486087    -0.489781844
