2
# Box:   30.0000   30.0000   30.0000
H         3.373364210    14.916316986    14.974308014    -0.000000000    -0.000000000    -0.000000000
H        29.296628952    14.843683243    14.305691719     0.000000000     0.000000000     0.000000000
2
# Box:   30.0000   30.0000   30.0000
H         3.349258661    14.889585495    14.922126770    -0.000000000    -0.000000000    -0.000000000
H        29.320735931    14.870414734    14.357872963     0.000000000     0.000000000     0.000000000
2
# Box:   30.0000   30.0000   30.0000
H         3.318822861    14.862825394    14.869061470    -0.000000000    -0.000000000    -0.000000000
H        29.351173401    14.897174835    14.410938263     0.000000000     0.000000000     0.000000000
2
# Box:   30.0000   30.0000   30.0000
H         3.281571865    14.836125374    14.815211296    -0.000000000    -0.000000000    -0.000000000
H        29.388420105    14.923875809    14.464788437     0.000000000     0.000000000     0.000000000
2
# Box:   30.0000   30.0000   30.0000
H         3.237002850    14.809591293    14.760707855    -0.000000000    -0.000000000    -0.000000000
H        29.432987213    14.950408936    14.519291878     0.000000000     0.000000000     0.000000000
2
# Box:   30.0000   30.0000   30.0000
H         3.184698105    14.783345222    14.705714226    -0.000000000    -0.000000000    -0.000000000
H        29.485292435    14.976655006    14.574285507     0.000000000     0.000000000     0.000000000
2
# Box:   30.0000   30.0000   30.0000
H         3.124572039    14.757507324    14.650444031    -0.000000000    -0.000000000    -0.000000000
H        29.545419693    15.002493858    14.629555702     0.000000000     0.000000000     0.000000000
2
# Box:   30.0000   30.0000   30.0000
H         3.057455778    14.732145309    14.595123291    -0.000000000    -0.000000000    -0.000000000
H        29.612537384    15.027855873    14.684876442     0.000000000     0.000000000     0.000000000
2
# Box:   30.0000   30.0000   30.0000
H         2.986366272    14.707108498    14.539881706    -0.000000000    -0.000000000    -0.000000000
H        29.683626175    15.052891731    14.740118027     0.000000000     0.000000000     0.000000000
2
# Box:   30.0000   30.0000   30.0000
H         2.918725967    14.681676865    14.484369278    -0.000000000    -0.000000000    -0.000000000
H        29.751264572    15.078324318    14.795629501     0.000000000     0.000000000     0.000000000
2
# Box:   30.0000   30.0000   30.0000
H         2.867965460    14.654072762    14.427091599    -0.000000000    -0.000000000    -0.000000000
H        29.802026749    15.105928421    14.852907181     0.000000000     0.000000000     0.000000000
2
# Box:   30.0000   30.0000   30.0000
H         2.848282814    14.621847153    14.365421295    -0.000000000    -0.000000000    -0.000000000
H        29.821708679    15.138154030    14.914578438     0.000000000     0.000000000     0.000000000
2
# Box:   30.0000   30.0000   30.0000
H         2.861391306    14.584055901    14.297852516     0.000000000    -0.000000000    -0.000000000
H        29.808597565    15.175944328    14.982147217    -0.000000000     0.000000000     0.000000000
2
# Box:   30.0000   30.0000   30.0000
H         2.894538403    14.542440414    14.225904465     0.000000000    -0.000000000    -0.000000000
H        29.775455475    15.217560768    15.054094315    -0.000000000     0.000000000     0.000000000
2
# Box:   30.0000   30.0000   30.0000
H         2.933504105    14.499608040    14.152488708     0.000000000    -0.000000000    -0.000000000
H        29.736492157    15.260392189    15.127511024    -0.000000000     0.000000000     0.000000000
2
# Box:   30.0000   30.0000   30.0000
H         2.969925165    14.457403183    14.079884529     0.000000000    -0.000000000    -0.000000000
H        29.700073242    15.302597046    15.200115204    -0.000000000     0.000000000     0.000000000
2
# Box:   30.0000   30.0000   30.0000
H         3.000317812    14.416761398    14.009353638     0.000000000    -0.000000000    -0.000000000
H        29.669677734    15.343238831    15.270645142    -0.000000000     0.000000000     0.000000000
2
# Box:   30.0000   30.0000   30.0000
H         3.023690701    14.378071785    13.941486359     0.000000000    -0.000000000    -0.000000000
H        29.646303177    15.381928444    15.338514328    -0.000000000     0.000000000     0.000000000
2
# Box:   30.0000   30.0000   30.0000
H         3.040094852    14.341451645    13.876496315     0.000000000    -0.000000000    -0.000000000
H        29.629898071    15.418548584    15.403503418    -0.000000000     0.000000000     0.000000000
2
# Box:   30.0000   30.0000   30.0000
H         3.049958706    14.306896210    13.814434052     0.000000000    -0.000000000    -0.000000000
H        29.620033264    15.453104973    15.465565681    -0.000000000     0.000000000     0.000000000
2
# Box:   30.0000   30.0000   30.0000
H         3.053802013    14.274349213    13.755268097     0.000000000    -0.000000000    -0.000000000
H        29.616191864    15.485651016    15.524731636    -0.000000000     0.000000000     0.000000000
2
# Box:   30.0000   30.0000   30.0000
H         3.052132368    14.243745804    13.698934555    -0.000000000    -0.000000000    -0.000000000
H        29.617860794    15.516254425    15.581065178     0.000000000     0.000000000     0.000000000
2
# Box:   30.0000   30.0000   30.0000
H         3.045403004    14.215015411    13.645372391    -0.000000000    -0.000000000    -0.000000000
H        29.624591827    15.544985771    15.634627342     0.000000000     0.000000000     0.000000000
2
# Box:   30.0000   30.0000   30.0000
H         3.034005165    14.188099861    13.594522476    -0.000000000    -0.000000000    -0.000000000
H        29.635986328    15.571900368    15.685477257     0.000000000     0.000000000     0.000000000
2
# Box:   30.0000   30.0000   30.0000
H         3.018270016    14.162949562    13.546340942    -0.000000000    -0.000000000    -0.000000000
H        29.651720047    15.597051620    15.733659744     0.000000000     0.000000000     0.000000000
2
# Box:   30.0000   30.0000   30.0000
H         2.998476505    14.139526367    13.500790596    -0.000000000    -0.000000000    -0.000000000
H        29.671514511    15.620474815    15.779209137     0.000000000     0.000000000     0.000000000
2
# Box:   30.0000   30.0000   30.0000
H         2.974855900    14.117805481    13.457862854    -0.000000000    -0.000000000    -0.000000000
H        29.695137024    15.642194748    15.822135925     0.000000000     0.000000000     0.000000000
2
# Box:   30.0000   30.0000   30.0000
H         2.947596312    14.097776413    13.417558670    -0.000000000    -0.000000000    -0.000000000
H        29.722394943    15.662223816    15.862441063     0.000000000     0.000000000     0.000000000
2
# Box:   30.0000   30.0000   30.0000
H         2.916851997    14.079437256    13.379897118    -0.000000000    -0.000000000    -0.000000000
H        29.753141403    15.680562973    15.900102615     0.000000000     0.000000000     0.000000000
2
# Box:   30.0000   30.0000   30.0000
H         2.882744312    14.062799454    13.344915390    -0.000000000    -0.000000000    -0.000000000
H        29.787252426    15.697201729    15.935085297     0.000000000     0.000000000     0.000000000
2
# Box:   30.0000   30.0000   30.0000
H         2.845367432    14.047888756    13.312667847    -0.000000000    -0.000000000    -0.000000000
H        29.824630737    15.712112427    15.967331886     0.000000000     0.000000000     0.000000000
2
# Box:   30.0000   30.0000   30.0000
H         2.804789543    14.034742355    13.283232689    -0.000000000    -0.000000000    -0.000000000
H        29.865209579    15.725258827    15.996767044     0.000000000     0.000000000     0.000000000
2
# Box:   30.0000   30.0000   30.0000
H         2.761054516    14.023410797    13.256711960    -0.000000000    -0.000000000    -0.000000000
H        29.908943176    15.736589432    16.023288727     0.000000000     0.000000000     0.000000000
2
# Box:   30.0000   30.0000   30.0000
H         2.714185238    14.013961792    13.233233452    -0.000000000    -0.000000000    -0.000000000
H        29.955814362    15.746039391    16.046766281     0.000000000     0.000000000     0.000000000
2
# Box:   30.0000   30.0000   30.0000
H         2.664180040    14.006483078    13.212956429    -0.000000000    -0.000000000    -0.000000000
H         0.005816700    15.753517151    16.067043304     0.000000000     0.000000000     0.000000000
2
# Box:   30.0000   30.0000   30.0000
H         2.611019611    14.001078606    13.196066856    -0.000000000    -0.000000000    -0.000000000
H         0.058977079    15.758922577    16.083932877     0.000000000     0.000000000     0.000000000
2
# Box:   30.0000   30.0000   30.0000
H         2.554662704    13.997877121    13.182796478    -0.000000000    -0.000000000    -0.000000000
H         0.115334153    15.762124062    16.097204208     0.000000000     0.000000000     0.000000000
2
# Box:   30.0000   30.0000   30.0000
H         2.495048523    13.997031212    13.173418045    -0.000000000     0.000000000    -0.000000000
H         0.174948394    15.762969017    16.106582642     0.000000000    -0.000000000     0.000000000
2
# Box:   30.0000   30.0000   30.0000
H         2.432099342    13.998727798    13.168259621    -0.000000000     0.000000000    -0.000000000
H         0.237897560    15.761272430    16.111740112     0.000000000    -0.000000000     0.000000000
2
# Box:   30.0000   30.0000   30.0000
H         2.365725040    14.003176689    13.167700768    -0.000000000     0.000000000     0.000000000
H         0.304271877    15.756824493    16.112298965     0.000000000    -0.000000000    -0.000000000
2
# Box:   30.0000   30.0000   30.0000
H         2.295833588    14.010622025    13.172169685    -0.000000000     0.000000000     0.000000000
H         0.374163330    15.749378204    16.107830048     0.000000000    -0.000000000    -0.000000000
2
# Box:   30.0000   30.0000   30.0000
H         2.222353935    14.021316528    13.182126999    -0.000000000     0.000000000     0.000000000
H         0.447643042    15.738683701    16.097871780     0.000000000    -0.000000000    -0.000000000
2
# Box:   30.0000   30.0000   30.0000
H         2.145284176    14.035487175    13.197988510    -0.000000000     0.000000000     0.000000000
H         0.524713039    15.724514008    16.082012177     0.000000000    -0.000000000    -0.000000000
2
# Box:   30.0000   30.0000   30.0000
H         2.064789057    14.053226471    13.219946861    -0.000000000     0.000000000     0.000000000
H         0.605207920    15.706773758    16.060052872     0.000000000    -0.000000000    -0.000000000
2
# Box:   30.0000   30.0000   30.0000
H         1.981401563    14.074235916    13.247514725    -0.000000000     0.000000000     0.000000000
H         0.688595772    15.685764313    16.032484055     0.000000000    -0.000000000    -0.000000000
2
# Box:   30.0000   30.0000   30.0000
H         1.896386266    14.097241402    13.278530121    -0.000000000     0.000000000     0.000000000
H         0.773611188    15.662759781    16.001470566     0.000000000    -0.000000000    -0.000000000
2
# Box:   30.0000   30.0000   30.0000
H         1.812245250    14.118929863    13.307246208    -0.000000000     0.000000000     0.000000000
H         0.857752204    15.641070366    15.972753525     0.000000000    -0.000000000    -0.000000000
2
# Box:   30.0000   30.0000   30.0000
H         1.732754230    14.133013725    13.322628021    -0.000000000     0.000000000     0.000000000
H         0.937243164    15.626987457    15.957372665     0.000000000    -0.000000000    -0.000000000
2
# Box:   30.0000   30.0000   30.0000
H         1.661046147    14.132307053    13.311916351    -0.000000000    -0.000000000    -0.000000000
H         1.008951426    15.627694130    15.968083382     0.000000000     0.000000000     0.000000000
