4
# Step: 0 Box:    8.0000    8.0000    8.0000 
H         2.281081625     0.075651502     1.199077131    -0.001299772    -0.000264219    -0.000412670
H         2.909932823    -0.043153303     0.422634761    -0.000057332     0.000429021    -0.000049350
H         2.088721582    -0.203300456    -0.194905884     0.000493133     0.000208017     0.001495679
H         1.443697726     0.212925756     0.490474836     0.000863971    -0.000372819    -0.001033659
4
# Step: 1 Box:    8.0000    8.0000    8.0000 
H         2.168353002     0.052037581     1.160636052    -0.001007280    -0.000155537    -0.000034755
H         2.856543343     0.024316914     0.475765141    -0.000078683     0.000872814     0.001072289
H         2.177917250    -0.241509803    -0.162980647     0.000815375    -0.001074572    -0.001258713
H         1.520620161     0.207278807     0.443860298     0.000270588     0.000357295     0.000221179
4
# Step: 2 Box:    8.0000    8.0000    8.0000 
H         2.055143867     0.038469865     1.182118035    -0.000426948    -0.000047793     0.000011798
H         2.870776512     0.076202300     0.521142761    -0.000489952    -0.000043262     0.000117641
H         2.238715103    -0.262107174    -0.157758303     0.000682200     0.000656724     0.001266831
H         1.558798274     0.189558508     0.371778352     0.000234700    -0.000565669    -0.001396270
4
# Step: 3 Box:    8.0000    8.0000    8.0000 
H         2.055527919     0.038117945     1.173496177    -0.000392987    -0.000058688     0.000280333
H         2.842833959     0.100003169     0.640044083     0.000779839     0.000526654     0.001391640
H         2.334253220    -0.269725458    -0.152061108     0.000598291    -0.000467493    -0.000643675
H         1.490818659     0.173727843     0.255801692    -0.000985143    -0.000000473    -0.001028298
4
# Step: 4 Box:    8.0000    8.0000    8.0000 
H         2.002758942     0.031687617     1.233970087     0.000094756     0.000016520     0.000466395
H         2.867545752     0.113587524     0.681090951    -0.001225457    -0.000081803     0.000112041
H         2.376675776    -0.233896210    -0.097769862     0.000646553     0.000483323     0.000742141
H         1.476453287     0.130744568     0.099989668     0.000484148    -0.000418039    -0.001320577
4
# Step: 5 Box:    8.0000    8.0000    8.0000 
H         1.971590837     0.008666998     1.281103765    -0.001214738    -0.000643781     0.000517205
H         2.778304569     0.189467316     0.759104903     0.000330127     0.001270936     0.000349002
H         2.442956818    -0.283307217    -0.133751913     0.000272757    -0.000761872    -0.000215998
H         1.530581532     0.127296402     0.010824089     0.000611854     0.000134717    -0.000650209
4
# Step: 6 Box:    8.0000    8.0000    8.0000 
H         1.909570505    -0.062757311     1.274300599     0.000580740    -0.000453880    -0.000826407
H         2.721816104     0.260207625     0.722272340    -0.001690182     0.000351655     0.000088524
H         2.487858707    -0.303735954    -0.004027323     0.000504538    -0.000271609     0.001614947
H         1.604188440     0.148409139    -0.075264772     0.000604904     0.000373834    -0.000877064
4
# Step: 7 Box:    8.0000    8.0000    8.0000 
H         1.936244074    -0.150764246     1.230120383    -0.000402714    -0.001106672     0.000564195
H         2.614738286     0.395911313     0.782969079    -0.000250928     0.001215170     0.000124677
H         2.479850531    -0.377440117     0.101241906    -0.000418093     0.000011812     0.000767406
H         1.692600865     0.174416549    -0.197050524     0.001071736    -0.000120311    -0.001456278
4
# Step: 8 Box:    8.0000    8.0000    8.0000 
H         1.923856768    -0.191581982     1.358971575     0.000194687     0.000213571     0.001511621
H         2.507055244     0.372166551     0.791528625    -0.001681312    -0.000363032     0.000792869
H         2.496681483    -0.298316521     0.161752372     0.000659012     0.000082256    -0.000345285
H         1.795840260     0.159855450    -0.394971729     0.000827613     0.000067206    -0.001959205
