4
# Step: 0 Box:    8.0000    8.0000    8.0000 
H         0.903745440     0.767302359     0.420414806    -0.000223445    -0.000535542    -0.000425715
H         1.394643487     0.141427484     0.944074266     0.000620929     0.000054858     0.001036412
H         2.047370346    -0.096971007     0.242348602    -0.000735143     0.000827285    -0.000065694
H         1.384084742    -0.236264724    -0.494035128     0.000337660    -0.000346600    -0.000545002
4
# Step: 1 Box:    8.0000    8.0000    8.0000 
H         0.884888961     0.723501996     0.370312411    -0.000007006    -0.000620540     0.000126779
H         1.395923352     0.114376503     1.006454480    -0.000413915    -0.000096129    -0.001091456
H         2.083896741     0.006583089     0.222986022     0.000758601     0.000900195     0.000046564
H         1.365135071    -0.268967367    -0.486950259    -0.000337679    -0.000183526     0.000918114
4
# Step: 2 Box:    8.0000    8.0000    8.0000 
H         0.850070943     0.700024633     0.361033395    -0.000668532     0.000334676    -0.000567791
H         1.409363077     0.062581812     0.877732054     0.000370408    -0.000954165    -0.000033682
H         2.080533984     0.086226866     0.207715040    -0.000074159     0.000789047    -0.000488144
H         1.389876230    -0.273338981    -0.333677723     0.000372284    -0.000169556     0.001089618
4
# Step: 3 Box:    8.0000    8.0000    8.0000 
H         0.818522497     0.677083271     0.359612293     0.000106695    -0.000874827     0.000703311
H         1.404050266     0.059888888     0.904730932    -0.000078981     0.001199732    -0.000067239
H         2.108907245     0.177313746     0.190698442    -0.000394683     0.000362807     0.000279811
H         1.398364335    -0.338791465    -0.342238794     0.000366970    -0.000687711    -0.000915881
