2
# Box:   30.0000   30.0000   30.0000
H        14.675439835    14.473408699    15.035512924     0.000000000    -0.000000000     0.000000000
H        17.994560242    15.286592484    14.244487762    -0.000000000     0.000000000    -0.000000000
2
# Box:   30.0000   30.0000   30.0000
H        14.736732483    14.445600510    15.063853264     0.000000000    -0.000000000     0.000000000
H        17.933267593    15.314399719    14.216146469    -0.000000000     0.000000000    -0.000000000
2
# Box:   30.0000   30.0000   30.0000
H        14.800442696    14.418431282    15.091570854     0.000000000    -0.000000000     0.000000000
H        17.869556427    15.341568947    14.188428879    -0.000000000     0.000000000    -0.000000000
2
# Box:   30.0000   30.0000   30.0000
H        14.861502647    14.390434265    15.120100021     0.000000000    -0.000000000     0.000000000
H        17.808496475    15.369566917    14.159899712    -0.000000000     0.000000000    -0.000000000
2
# Box:   30.0000   30.0000   30.0000
H        14.912890434    14.359180450    15.151823044     0.000000000    -0.000000000     0.000000000
H        17.757108688    15.400819778    14.128177643    -0.000000000     0.000000000    -0.000000000
2
# Box:   30.0000   30.0000   30.0000
H        14.948233604    14.322023392    15.189350128     0.000000000    -0.000000000     0.000000000
H        17.721765518    15.437976837    14.090650558    -0.000000000     0.000000000    -0.000000000
2
# Box:   30.0000   30.0000   30.0000
H        14.966138840    14.277858734    15.233775139     0.000000000    -0.000000000     0.000000000
H        17.703861237    15.482141495    14.046224594    -0.000000000     0.000000000    -0.000000000
2
# Box:   30.0000   30.0000   30.0000
H        14.971300125    14.228130341    15.283687592     0.000000000    -0.000000000     0.000000000
H        17.698699951    15.531869888    13.996314049    -0.000000000     0.000000000    -0.000000000
2
# Box:   30.0000   30.0000   30.0000
H        14.970777512    14.175729752    15.336237907    -0.000000000    -0.000000000     0.000000000
H        17.699222565    15.584270477    13.943762779     0.000000000     0.000000000    -0.000000000
2
# Box:   30.0000   30.0000   30.0000
H        14.970255852    14.123357773    15.388757706     0.000000000    -0.000000000     0.000000000
H        17.699743271    15.636643410    13.891242981    -0.000000000     0.000000000    -0.000000000
2
# Box:   30.0000   30.0000   30.0000
H        14.973097801    14.072865486    15.439419746     0.000000000    -0.000000000     0.000000000
H        17.696901321    15.687135696    13.840580940    -0.000000000     0.000000000    -0.000000000
2
# Box:   30.0000   30.0000   30.0000
H        14.980917931    14.025325775    15.487154961     0.000000000    -0.000000000     0.000000000
H        17.689081192    15.734674454    13.792846680    -0.000000000     0.000000000    -0.000000000
2
# Box:   30.0000   30.0000   30.0000
H        14.994321823    13.981318474    15.531389236     0.000000000    -0.000000000     0.000000000
H        17.675678253    15.778682709    13.748611450    -0.000000000     0.000000000    -0.000000000
2
# Box:   30.0000   30.0000   30.0000
H        15.013428688    13.941131592    15.571833611     0.000000000    -0.000000000     0.000000000
H        17.656570435    15.818868637    13.708167076    -0.000000000     0.000000000    -0.000000000
2
# Box:   30.0000   30.0000   30.0000
H        15.038129807    13.904920578    15.608333588     0.000000000    -0.000000000     0.000000000
H        17.631870270    15.855079651    13.671667099    -0.000000000     0.000000000    -0.000000000
2
# Box:   30.0000   30.0000   30.0000
H        15.068237305    13.872770309    15.640800476     0.000000000    -0.000000000     0.000000000
H        17.601760864    15.887230873    13.639201164    -0.000000000     0.000000000    -0.000000000
2
# Box:   30.0000   30.0000   30.0000
H        15.103544235    13.844752312    15.669158936     0.000000000    -0.000000000     0.000000000
H        17.566455841    15.915248871    13.610841751    -0.000000000     0.000000000    -0.000000000
2
# Box:   30.0000   30.0000   30.0000
H        15.143857956    13.820944786    15.693332672     0.000000000    -0.000000000     0.000000000
H        17.526142120    15.939055443    13.586668015    -0.000000000     0.000000000    -0.000000000
2
# Box:   30.0000   30.0000   30.0000
H        15.189010620    13.801440239    15.713229179     0.000000000    -0.000000000     0.000000000
H        17.480987549    15.958560944    13.566771507    -0.000000000     0.000000000    -0.000000000
2
# Box:   30.0000   30.0000   30.0000
H        15.238853455    13.786352158    15.728732109     0.000000000    -0.000000000     0.000000000
H        17.431146622    15.973649025    13.551268578    -0.000000000     0.000000000    -0.000000000
2
# Box:   30.0000   30.0000   30.0000
H        15.293247223    13.775804520    15.739712715     0.000000000    -0.000000000     0.000000000
H        17.376750946    15.984196663    13.540287971    -0.000000000     0.000000000    -0.000000000
2
# Box:   30.0000   30.0000   30.0000
H        15.352037430    13.769916534    15.746049881     0.000000000    -0.000000000     0.000000000
H        17.317962646    15.990084648    13.533950806    -0.000000000     0.000000000    -0.000000000
2
# Box:   30.0000   30.0000   30.0000
H        15.415011406    13.768754005    15.747681618     0.000000000     0.000000000    -0.000000000
H        17.254987717    15.991247177    13.532319069    -0.000000000    -0.000000000     0.000000000
2
# Box:   30.0000   30.0000   30.0000
H        15.481828690    13.772229195    15.744690895     0.000000000     0.000000000    -0.000000000
H        17.188171387    15.987771988    13.535309792    -0.000000000    -0.000000000     0.000000000
2
# Box:   30.0000   30.0000   30.0000
H        15.551893234    13.779911995    15.737503052     0.000000000     0.000000000    -0.000000000
H        17.118106842    15.980089188    13.542498589    -0.000000000    -0.000000000     0.000000000
2
# Box:   30.0000   30.0000   30.0000
H        15.624166489    13.790678978    15.727238655     0.000000000     0.000000000    -0.000000000
H        17.045833588    15.969322205    13.552762032    -0.000000000    -0.000000000     0.000000000
2
# Box:   30.0000   30.0000   30.0000
H        15.696940422    13.802165031    15.716256142     0.000000000     0.000000000    -0.000000000
H        16.973058701    15.957836151    13.563745499    -0.000000000    -0.000000000     0.000000000
2
# Box:   30.0000   30.0000   30.0000
H        15.767757416    13.810258865    15.708660126     0.000000000     0.000000000    -0.000000000
H        16.902240753    15.949741364    13.571340561    -0.000000000    -0.000000000     0.000000000
2
# Box:   30.0000   30.0000   30.0000
H        15.833953857    13.809529305    15.709878922     0.000000000    -0.000000000     0.000000000
H        16.836046219    15.950470924    13.570121765    -0.000000000     0.000000000    -0.000000000
2
# Box:   30.0000   30.0000   30.0000
H        15.894054413    13.795726776    15.724167824     0.000000000    -0.000000000     0.000000000
H        16.775945663    15.964274406    13.555832863    -0.000000000     0.000000000    -0.000000000
2
# Box:   30.0000   30.0000   30.0000
H        15.948859215    13.768970490    15.751404762     0.000000000    -0.000000000     0.000000000
H        16.721139908    15.991029739    13.528595924    -0.000000000     0.000000000    -0.000000000
2
# Box:   30.0000   30.0000   30.0000
H        16.000642776    13.733683586    15.787176132     0.000000000    -0.000000000     0.000000000
H        16.669357300    16.026317596    13.492824554    -0.000000000     0.000000000    -0.000000000
2
# Box:   30.0000   30.0000   30.0000
H        16.051496506    13.695364952    15.825981140     0.000000000    -0.000000000     0.000000000
H        16.618503571    16.064636230    13.454019547    -0.000000000     0.000000000    -0.000000000
2
# Box:   30.0000   30.0000   30.0000
H        16.102598190    13.658199310    15.863632202     0.000000000    -0.000000000     0.000000000
H        16.567401886    16.101800919    13.416368484    -0.000000000     0.000000000    -0.000000000
2
# Box:   30.0000   30.0000   30.0000
H        16.154375076    13.624645233    15.897666931     0.000000000    -0.000000000     0.000000000
H        16.515625000    16.135354996    13.382333755    -0.000000000     0.000000000    -0.000000000
2
# Box:   30.0000   30.0000   30.0000
H        16.206844330    13.595938683    15.926845551     0.000000000    -0.000000000     0.000000000
H        16.463155746    16.164062500    13.353156090    -0.000000000     0.000000000    -0.000000000
2
# Box:   30.0000   30.0000   30.0000
H        16.259847641    13.572617531    15.950626373     0.000000000    -0.000000000     0.000000000
H        16.410152435    16.187383652    13.329374313    -0.000000000     0.000000000    -0.000000000
2
# Box:   30.0000   30.0000   30.0000
H        16.313173294    13.554860115    15.968830109     0.000000000    -0.000000000     0.000000000
H        16.356826782    16.205141068    13.311170578    -0.000000000     0.000000000    -0.000000000
2
# Box:   30.0000   30.0000   30.0000
H        16.366592407    13.542686462    15.981433868     0.000000000    -0.000000000     0.000000000
H        16.303407669    16.217313766    13.298567772    -0.000000000     0.000000000    -0.000000000
2
# Box:   30.0000   30.0000   30.0000
H        16.419879913    13.536056519    15.988474846     0.000000000    -0.000000000     0.000000000
H        16.250118256    16.223943710    13.291525841    -0.000000000     0.000000000    -0.000000000
2
# Box:   30.0000   30.0000   30.0000
H        16.472822189    13.534921646    15.990004539     0.000000000     0.000000000    -0.000000000
H        16.197177887    16.225078583    13.289996147    -0.000000000    -0.000000000     0.000000000
2
# Box:   30.0000   30.0000   30.0000
H        16.525201797    13.539248466    15.986050606     0.000000000     0.000000000    -0.000000000
H        16.144798279    16.220752716    13.293951035    -0.000000000    -0.000000000     0.000000000
2
# Box:   30.0000   30.0000   30.0000
H        16.576808929    13.549031258    15.976620674     0.000000000     0.000000000    -0.000000000
H        16.093191147    16.210969925    13.303380013    -0.000000000    -0.000000000     0.000000000
2
# Box:   30.0000   30.0000   30.0000
H        16.627422333    13.564281464    15.961698532     0.000000000     0.000000000    -0.000000000
H        16.042577744    16.195718765    13.318302155    -0.000000000    -0.000000000     0.000000000
2
# Box:   30.0000   30.0000   30.0000
H        16.676811218    13.585027695    15.941258430     0.000000000     0.000000000    -0.000000000
H        15.993186951    16.174972534    13.338742256    -0.000000000    -0.000000000     0.000000000
2
# Box:   30.0000   30.0000   30.0000
H        16.724752426    13.611260414    15.915302277     0.000000000     0.000000000    -0.000000000
H        15.945247650    16.148740768    13.364698410    -0.000000000    -0.000000000     0.000000000
2
# Box:   30.0000   30.0000   30.0000
H        16.771036148    13.642885208    15.883924484     0.000000000     0.000000000    -0.000000000
H        15.898962975    16.117115021    13.396076202    -0.000000000    -0.000000000     0.000000000
2
# Box:   30.0000   30.0000   30.0000
H        16.815536499    13.679582596    15.847450256     0.000000000     0.000000000    -0.000000000
H        15.854463577    16.080417633    13.432550430    -0.000000000    -0.000000000     0.000000000
2
# Box:   30.0000   30.0000   30.0000
H        16.858327866    13.720569611    15.806660652     0.000000000     0.000000000    -0.000000000
H        15.811672211    16.039430618    13.473340034    -0.000000000    -0.000000000     0.000000000
2
# Box:   30.0000   30.0000   30.0000
H        16.899940491    13.764202118    15.763208389     0.000000000     0.000000000    -0.000000000
H        15.770059586    15.995798111    13.516792297    -0.000000000    -0.000000000     0.000000000
2
# Box:   30.0000   30.0000   30.0000
H        16.941780090    13.807462692    15.720133781     0.000000000     0.000000000    -0.000000000
H        15.728218079    15.952538490    13.559866905    -0.000000000    -0.000000000     0.000000000
2
# Box:   30.0000   30.0000   30.0000
H        16.986511230    13.845710754    15.682106018     0.000000000     0.000000000    -0.000000000
H        15.683487892    15.914289474    13.597894669    -0.000000000    -0.000000000     0.000000000
2
# Box:   30.0000   30.0000   30.0000
H        17.037666321    13.873848915    15.654266357     0.000000000     0.000000000    -0.000000000
H        15.632333755    15.886152267    13.625735283    -0.000000000    -0.000000000     0.000000000
2
# Box:   30.0000   30.0000   30.0000
H        17.097726822    13.889242172    15.639271736     0.000000000     0.000000000    -0.000000000
H        15.572272301    15.870758057    13.640728951    -0.000000000    -0.000000000     0.000000000
2
# Box:   30.0000   30.0000   30.0000
H        17.166065216    13.893827438    15.635180473     0.000000000     0.000000000    -0.000000000
H        15.503934860    15.866173744    13.644820213    -0.000000000    -0.000000000     0.000000000
2
# Box:   30.0000   30.0000   30.0000
H        17.239356995    13.892455101    15.637100220     0.000000000    -0.000000000     0.000000000
H        15.430642128    15.867546082    13.642901421    -0.000000000     0.000000000    -0.000000000
2
# Box:   30.0000   30.0000   30.0000
H        17.313800812    13.889778137    15.640336037     0.000000000    -0.000000000     0.000000000
H        15.356199265    15.870223045    13.639664650    -0.000000000     0.000000000    -0.000000000
2
# Box:   30.0000   30.0000   30.0000
H        17.386508942    13.888825417    15.641828537     0.000000000     0.000000000    -0.000000000
H        15.283490181    15.871175766    13.638172150    -0.000000000    -0.000000000     0.000000000
2
# Box:   30.0000   30.0000   30.0000
H        17.455707550    13.891172409    15.639986992     0.000000000     0.000000000    -0.000000000
H        15.214292526    15.868827820    13.640013695    -0.000000000    -0.000000000     0.000000000
2
# Box:   30.0000   30.0000   30.0000
H        17.520406723    13.897485733    15.634135246     0.000000000     0.000000000    -0.000000000
H        15.149593353    15.862514496    13.645866394    -0.000000000    -0.000000000     0.000000000
2
# Box:   30.0000   30.0000   30.0000
H        17.580089569    13.907957077    15.624075890     0.000000000     0.000000000    -0.000000000
H        15.089910507    15.852043152    13.655924797    -0.000000000    -0.000000000     0.000000000
2
# Box:   30.0000   30.0000   30.0000
H        17.634481430    13.922555923    15.609835625     0.000000000     0.000000000    -0.000000000
H        15.035518646    15.837445259    13.670166016    -0.000000000    -0.000000000     0.000000000
2
# Box:   30.0000   30.0000   30.0000
H        17.683423996    13.941167831    15.591527939     0.000000000     0.000000000    -0.000000000
H        14.986576080    15.818833351    13.688472748    -0.000000000    -0.000000000     0.000000000
2
# Box:   30.0000   30.0000   30.0000
H        17.726806641    13.963653564    15.569294930     0.000000000     0.000000000    -0.000000000
H        14.943191528    15.796346664    13.710706711    -0.000000000    -0.000000000     0.000000000
2
# Box:   30.0000   30.0000   30.0000
H        17.764516830    13.989876747    15.543274879     0.000000000     0.000000000    -0.000000000
H        14.905482292    15.770124435    13.736725807    -0.000000000    -0.000000000     0.000000000
2
# Box:   30.0000   30.0000   30.0000
H        17.796422958    14.019712448    15.513587952     0.000000000     0.000000000    -0.000000000
H        14.873576164    15.740288734    13.766412735    -0.000000000    -0.000000000     0.000000000
2
# Box:   30.0000   30.0000   30.0000
H        17.822368622    14.053057671    15.480338097     0.000000000     0.000000000    -0.000000000
H        14.847630501    15.706943512    13.799662590    -0.000000000    -0.000000000     0.000000000
2
# Box:   30.0000   30.0000   30.0000
H        17.842174530    14.089814186    15.443618774     0.000000000     0.000000000    -0.000000000
H        14.827825546    15.670186043    13.836382866    -0.000000000    -0.000000000     0.000000000
2
# Box:   30.0000   30.0000   30.0000
H        17.855651855    14.129887581    15.403527260     0.000000000     0.000000000    -0.000000000
H        14.814348221    15.630112648    13.876474380    -0.000000000    -0.000000000     0.000000000
2
# Box:   30.0000   30.0000   30.0000
H        17.862665176    14.173150063    15.360189438     0.000000000     0.000000000    -0.000000000
H        14.807333946    15.586851120    13.919811249    -0.000000000    -0.000000000     0.000000000
2
# Box:   30.0000   30.0000   30.0000
H        17.863222122    14.219403267    15.313808441    -0.000000000     0.000000000    -0.000000000
H        14.806777000    15.540597916    13.966192245     0.000000000    -0.000000000     0.000000000
2
# Box:   30.0000   30.0000   30.0000
H        17.857688904    14.268291473    15.264738083    -0.000000000     0.000000000    -0.000000000
H        14.812309265    15.491709709    14.015263557     0.000000000    -0.000000000     0.000000000
2
# Box:   30.0000   30.0000   30.0000
H        17.847183228    14.319182396    15.213619232    -0.000000000     0.000000000    -0.000000000
H        14.822815895    15.440817833    14.066381454     0.000000000    -0.000000000     0.000000000
2
# Box:   30.0000   30.0000   30.0000
H        17.834238052    14.370998383    15.161560059    -0.000000000     0.000000000    -0.000000000
H        14.835762024    15.389002800    14.118441582     0.000000000    -0.000000000     0.000000000
2
# Box:   30.0000   30.0000   30.0000
H        17.823616028    14.422056198    15.110273361    -0.000000000     0.000000000    -0.000000000
H        14.846384048    15.337944031    14.169727325     0.000000000    -0.000000000     0.000000000
2
# Box:   30.0000   30.0000   30.0000
H        17.822431564    14.470252037    15.061926842     0.000000000     0.000000000    -0.000000000
H        14.847568512    15.289749146    14.218073845    -0.000000000    -0.000000000     0.000000000
2
# Box:   30.0000   30.0000   30.0000
H        17.837800980    14.513917923    15.018245697     0.000000000     0.000000000    -0.000000000
H        14.832199097    15.246082306    14.261754990    -0.000000000    -0.000000000     0.000000000
2
# Box:   30.0000   30.0000   30.0000
H        17.872135162    14.552955627    14.979347229     0.000000000     0.000000000    -0.000000000
H        14.797863960    15.207044601    14.300653458    -0.000000000    -0.000000000     0.000000000
2
# Box:   30.0000   30.0000   30.0000
H        17.921087265    14.588847160    14.943712234     0.000000000     0.000000000    -0.000000000
H        14.748912811    15.171154022    14.336289406    -0.000000000    -0.000000000     0.000000000
2
# Box:   30.0000   30.0000   30.0000
H        17.976985931    14.623426437    14.909444809     0.000000000     0.000000000    -0.000000000
H        14.693014145    15.136574745    14.370555878    -0.000000000    -0.000000000     0.000000000
2
# Box:   30.0000   30.0000   30.0000
H        18.033113480    14.657944679    14.875241280     0.000000000     0.000000000    -0.000000000
H        14.636886597    15.102056503    14.404759407    -0.000000000    -0.000000000     0.000000000
2
# Box:   30.0000   30.0000   30.0000
H        18.085187912    14.692979813    14.840487480     0.000000000     0.000000000    -0.000000000
H        14.584812164    15.067020416    14.439514160    -0.000000000    -0.000000000     0.000000000
2
# Box:   30.0000   30.0000   30.0000
H        18.130926132    14.728690147    14.805011749     0.000000000     0.000000000    -0.000000000
H        14.539073944    15.031310081    14.474988937    -0.000000000    -0.000000000     0.000000000
2
# Box:   30.0000   30.0000   30.0000
H        18.169271469    14.765022278    14.768857956     0.000000000     0.000000000    -0.000000000
H        14.500728607    14.994978905    14.511142731    -0.000000000    -0.000000000     0.000000000
2
# Box:   30.0000   30.0000   30.0000
H        18.199819565    14.801837921    14.732156754     0.000000000     0.000000000    -0.000000000
H        14.470180511    14.958162308    14.547843933    -0.000000000    -0.000000000     0.000000000
2
# Box:   30.0000   30.0000   30.0000
H        18.222467422    14.838990211    14.695066452     0.000000000     0.000000000    -0.000000000
H        14.447531700    14.921010971    14.584934235    -0.000000000    -0.000000000     0.000000000
2
# Box:   30.0000   30.0000   30.0000
H        18.237245560    14.876313210    14.657744408     0.000000000     0.000000000    -0.000000000
H        14.432753563    14.883687973    14.622257233    -0.000000000    -0.000000000     0.000000000
2
# Box:   30.0000   30.0000   30.0000
H        18.244213104    14.913650513    14.620350838     0.000000000     0.000000000    -0.000000000
H        14.425786972    14.846349716    14.659650803    -0.000000000    -0.000000000     0.000000000
2
# Box:   30.0000   30.0000   30.0000
H        18.243412018    14.950851440    14.583034515    -0.000000000     0.000000000    -0.000000000
H        14.426588058    14.809149742    14.696966171     0.000000000    -0.000000000     0.000000000
2
# Box:   30.0000   30.0000   30.0000
H        18.234859467    14.987763405    14.545951843    -0.000000000     0.000000000    -0.000000000
H        14.435140610    14.772237778    14.734048843     0.000000000    -0.000000000     0.000000000
2
# Box:   30.0000   30.0000   30.0000
H        18.218534470    15.024232864    14.509253502    -0.000000000     0.000000000    -0.000000000
H        14.451465607    14.735767365    14.770747185     0.000000000    -0.000000000     0.000000000
2
# Box:   30.0000   30.0000   30.0000
H        18.194395065    15.060106277    14.473096848    -0.000000000     0.000000000    -0.000000000
H        14.475604057    14.699893951    14.806903839     0.000000000    -0.000000000     0.000000000
2
# Box:   30.0000   30.0000   30.0000
H        18.162414551    15.095218658    14.437645912    -0.000000000     0.000000000    -0.000000000
H        14.507585526    14.664782524    14.842355728     0.000000000    -0.000000000     0.000000000
2
# Box:   30.0000   30.0000   30.0000
H        18.122653961    15.129413605    14.403056145    -0.000000000     0.000000000    -0.000000000
H        14.547346115    14.630586624    14.876945496     0.000000000    -0.000000000     0.000000000
2
# Box:   30.0000   30.0000   30.0000
H        18.075416565    15.162568092    14.369457245    -0.000000000     0.000000000    -0.000000000
H        14.594582558    14.597433090    14.910544395     0.000000000    -0.000000000     0.000000000
2
# Box:   30.0000   30.0000   30.0000
H        18.021514893    15.194645882    14.336889267    -0.000000000     0.000000000    -0.000000000
H        14.648484230    14.565354347    14.943112373     0.000000000    -0.000000000     0.000000000
2
# Box:   30.0000   30.0000   30.0000
H        17.962760925    15.225828171    14.305182457    -0.000000000     0.000000000    -0.000000000
H        14.707239151    14.534173012    14.974818230     0.000000000    -0.000000000     0.000000000
2
# Box:   30.0000   30.0000   30.0000
H        17.902687073    15.256747246    14.273729324    -0.000000000     0.000000000    -0.000000000
H        14.767312050    14.503253937    15.006271362     0.000000000    -0.000000000     0.000000000
2
# Box:   30.0000   30.0000   30.0000
H        17.847167969    15.288797379    14.241174698    -0.000000000     0.000000000    -0.000000000
H        14.822831154    14.471202850    15.038825989     0.000000000    -0.000000000     0.000000000
2
# Box:   30.0000   30.0000   30.0000
H        17.803712845    15.324150085    14.205397606    -0.000000000     0.000000000    -0.000000000
H        14.866286278    14.435850143    15.074604034     0.000000000    -0.000000000     0.000000000
2
# Box:   30.0000   30.0000   30.0000
H        17.778015137    15.364891052    14.164348602    -0.000000000     0.000000000    -0.000000000
H        14.891984940    14.395109177    15.115652084     0.000000000    -0.000000000     0.000000000
2
# Box:   30.0000   30.0000   30.0000
H        17.769744873    15.411470413    14.117574692    -0.000000000     0.000000000    -0.000000000
H        14.900254250    14.348530769    15.162425995     0.000000000    -0.000000000     0.000000000
2
# Box:   30.0000   30.0000   30.0000
H        17.772888184    15.462232590    14.066686630     0.000000000     0.000000000    -0.000000000
H        14.897111893    14.297767639    15.213314056    -0.000000000    -0.000000000     0.000000000
2
# Box:   30.0000   30.0000   30.0000
H        17.780172348    15.514635086    14.014184952     0.000000000     0.000000000    -0.000000000
H        14.889827728    14.245366096    15.265816689    -0.000000000    -0.000000000     0.000000000
2
# Box:   30.0000   30.0000   30.0000
H        17.786262512    15.566490173    13.962222099     0.000000000     0.000000000    -0.000000000
H        14.883737564    14.193511009    15.317778587    -0.000000000    -0.000000000     0.000000000
2
# Box:   30.0000   30.0000   30.0000
H        17.788167953    15.616352081    13.912227631    -0.000000000     0.000000000    -0.000000000
H        14.881831169    14.143648148    15.367774010     0.000000000    -0.000000000     0.000000000
2
# Box:   30.0000   30.0000   30.0000
H        17.784505844    15.663389206    13.865026474    -0.000000000     0.000000000    -0.000000000
H        14.885493279    14.096611977    15.414974213     0.000000000    -0.000000000     0.000000000
2
# Box:   30.0000   30.0000   30.0000
H        17.774776459    15.707147598    13.821069717    -0.000000000     0.000000000    -0.000000000
H        14.895221710    14.052853584    15.458930969     0.000000000    -0.000000000     0.000000000
2
# Box:   30.0000   30.0000   30.0000
H        17.758920670    15.747385025    13.780599594    -0.000000000     0.000000000    -0.000000000
H        14.911079407    14.012615204    15.499401093     0.000000000    -0.000000000     0.000000000
2
# Box:   30.0000   30.0000   30.0000
H        17.737058640    15.783963203    13.743752480    -0.000000000     0.000000000    -0.000000000
H        14.932941437    13.976037979    15.536249161     0.000000000    -0.000000000     0.000000000
2
# Box:   30.0000   30.0000   30.0000
H        17.709379196    15.816793442    13.710621834    -0.000000000     0.000000000    -0.000000000
H        14.960620880    13.943206787    15.569379807     0.000000000    -0.000000000     0.000000000
2
# Box:   30.0000   30.0000   30.0000
H        17.676076889    15.845790863    13.681292534    -0.000000000     0.000000000    -0.000000000
H        14.993923187    13.914209366    15.598708153     0.000000000    -0.000000000     0.000000000
2
# Box:   30.0000   30.0000   30.0000
H        17.637331009    15.870866776    13.655860901    -0.000000000     0.000000000    -0.000000000
H        15.032669067    13.889133453    15.624140739     0.000000000    -0.000000000     0.000000000
2
# Box:   30.0000   30.0000   30.0000
H        17.593284607    15.891910553    13.634428978    -0.000000000     0.000000000    -0.000000000
H        15.076714516    13.868089676    15.645571709     0.000000000    -0.000000000     0.000000000
2
# Box:   30.0000   30.0000   30.0000
H        17.544073105    15.908796310    13.617130280    -0.000000000     0.000000000    -0.000000000
H        15.125926971    13.851203918    15.662870407     0.000000000    -0.000000000     0.000000000
2
# Box:   30.0000   30.0000   30.0000
H        17.489816666    15.921393394    13.604097366    -0.000000000     0.000000000    -0.000000000
H        15.180182457    13.838606834    15.675903320     0.000000000    -0.000000000     0.000000000
2
# Box:   30.0000   30.0000   30.0000
H        17.430669785    15.929578781    13.595452309    -0.000000000     0.000000000    -0.000000000
H        15.239330292    13.830422401    15.684548378     0.000000000    -0.000000000     0.000000000
2
# Box:   30.0000   30.0000   30.0000
H        17.366863251    15.933302879    13.591247559    -0.000000000     0.000000000    -0.000000000
H        15.303136826    13.826698303    15.688753128     0.000000000    -0.000000000     0.000000000
2
# Box:   30.0000   30.0000   30.0000
H        17.298810959    15.932693481    13.591355324    -0.000000000    -0.000000000     0.000000000
H        15.371188164    13.827306747    15.688646317     0.000000000     0.000000000    -0.000000000
2
# Box:   30.0000   30.0000   30.0000
H        17.227275848    15.928285599    13.595248222    -0.000000000    -0.000000000     0.000000000
H        15.442724228    13.831715584    15.684752464     0.000000000     0.000000000    -0.000000000
