2
# Box:   30.0000   30.0000   30.0000
H        14.580134392    14.971906662    14.534853935     0.000000000     0.000000000    -0.000000000
H        18.089864731    14.788093567    14.745145798    -0.000000000    -0.000000000     0.000000000
2
# Box:   30.0000   30.0000   30.0000
H        14.629241943    15.009831429    14.497182846     0.000000000     0.000000000    -0.000000000
H        18.040756226    14.750169754    14.782817841    -0.000000000    -0.000000000     0.000000000
2
# Box:   30.0000   30.0000   30.0000
H        14.681529045    15.047529221    14.459761620     0.000000000     0.000000000    -0.000000000
H        17.988470078    14.712471962    14.820238113    -0.000000000    -0.000000000     0.000000000
2
# Box:   30.0000   30.0000   30.0000
H        14.731975555    15.085438728    14.422112465     0.000000000     0.000000000    -0.000000000
H        17.938024521    14.674562454    14.857887268    -0.000000000    -0.000000000     0.000000000
2
# Box:   30.0000   30.0000   30.0000
H        14.773195267    15.124570847    14.383171082     0.000000000     0.000000000    -0.000000000
H        17.896804810    14.635429382    14.896829605    -0.000000000    -0.000000000     0.000000000
2
# Box:   30.0000   30.0000   30.0000
H        14.797705650    15.166353226    14.341451645     0.000000000     0.000000000    -0.000000000
H        17.872293472    14.593647957    14.938547134    -0.000000000    -0.000000000     0.000000000
2
# Box:   30.0000   30.0000   30.0000
H        14.802695274    15.211767197    14.295945168    -0.000000000     0.000000000    -0.000000000
H        17.867303848    14.548233986    14.984054565     0.000000000    -0.000000000     0.000000000
2
# Box:   30.0000   30.0000   30.0000
H        14.792324066    15.260469437    14.247022629    -0.000000000     0.000000000    -0.000000000
H        17.877676010    14.499530792    15.032977104     0.000000000    -0.000000000     0.000000000
2
# Box:   30.0000   30.0000   30.0000
H        14.774330139    15.311016083    14.196197510    -0.000000000     0.000000000    -0.000000000
H        17.895669937    14.448985100    15.083801270     0.000000000    -0.000000000     0.000000000
2
# Box:   30.0000   30.0000   30.0000
H        14.755514145    15.361761093    14.145169258    -0.000000000     0.000000000    -0.000000000
H        17.914485931    14.398240089    15.134830475     0.000000000    -0.000000000     0.000000000
2
# Box:   30.0000   30.0000   30.0000
H        14.740147591    15.411438942    14.095233917    -0.000000000     0.000000000    -0.000000000
H        17.929851532    14.348562241    15.184765816     0.000000000    -0.000000000     0.000000000
2
# Box:   30.0000   30.0000   30.0000
H        14.730410576    15.459233284    14.047226906    -0.000000000     0.000000000    -0.000000000
H        17.939588547    14.300766945    15.232772827     0.000000000    -0.000000000     0.000000000
2
# Box:   30.0000   30.0000   30.0000
H        14.727228165    15.504661560    14.001641273     0.000000000     0.000000000    -0.000000000
H        17.942771912    14.255338669    15.278358459    -0.000000000    -0.000000000     0.000000000
2
# Box:   30.0000   30.0000   30.0000
H        14.730872154    15.547435760    13.958767891     0.000000000     0.000000000    -0.000000000
H        17.939126968    14.212565422    15.321231842    -0.000000000    -0.000000000     0.000000000
2
# Box:   30.0000   30.0000   30.0000
H        14.741319656    15.587382317    13.918783188     0.000000000     0.000000000    -0.000000000
H        17.928680420    14.172618866    15.361215591    -0.000000000    -0.000000000     0.000000000
2
# Box:   30.0000   30.0000   30.0000
H        14.758424759    15.624371529    13.881812096     0.000000000     0.000000000    -0.000000000
H        17.911575317    14.135628700    15.398187637    -0.000000000    -0.000000000     0.000000000
2
# Box:   30.0000   30.0000   30.0000
H        14.782012939    15.658302307    13.847956657     0.000000000     0.000000000    -0.000000000
H        17.887987137    14.101697922    15.432043076    -0.000000000    -0.000000000     0.000000000
2
# Box:   30.0000   30.0000   30.0000
H        14.811921120    15.689063072    13.817324638     0.000000000     0.000000000    -0.000000000
H        17.858078003    14.070938110    15.462675095    -0.000000000    -0.000000000     0.000000000
2
# Box:   30.0000   30.0000   30.0000
H        14.848013878    15.716538429    13.790035248     0.000000000     0.000000000    -0.000000000
H        17.821985245    14.043462753    15.489964485    -0.000000000    -0.000000000     0.000000000
2
# Box:   30.0000   30.0000   30.0000
H        14.890184402    15.740594864    13.766218185     0.000000000     0.000000000    -0.000000000
H        17.779815674    14.019405365    15.513781548    -0.000000000    -0.000000000     0.000000000
2
# Box:   30.0000   30.0000   30.0000
H        14.938339233    15.761089325    13.746022224     0.000000000     0.000000000    -0.000000000
H        17.731660843    13.998910904    15.533977509    -0.000000000    -0.000000000     0.000000000
2
# Box:   30.0000   30.0000   30.0000
H        14.992372513    15.777873993    13.729589462     0.000000000     0.000000000    -0.000000000
H        17.677627563    13.982126236    15.550411224    -0.000000000    -0.000000000     0.000000000
2
# Box:   30.0000   30.0000   30.0000
H        15.052122116    15.790835381    13.717030525     0.000000000     0.000000000    -0.000000000
H        17.617877960    13.969164848    15.562969208    -0.000000000    -0.000000000     0.000000000
2
# Box:   30.0000   30.0000   30.0000
H        15.117261887    15.799970627    13.708347321     0.000000000     0.000000000    -0.000000000
H        17.552738190    13.960029602    15.571652412    -0.000000000    -0.000000000     0.000000000
2
# Box:   30.0000   30.0000   30.0000
H        15.187138557    15.805531502    13.703287125     0.000000000     0.000000000    -0.000000000
H        17.482860565    13.954468727    15.576713562    -0.000000000    -0.000000000     0.000000000
2
# Box:   30.0000   30.0000   30.0000
H        15.260492325    15.808303833    13.701048851     0.000000000     0.000000000    -0.000000000
H        17.409507751    13.951697350    15.578950882    -0.000000000    -0.000000000     0.000000000
2
# Box:   30.0000   30.0000   30.0000
H        15.335050583    15.810062408    13.699834824     0.000000000     0.000000000    -0.000000000
H        17.334949493    13.949937820    15.580165863    -0.000000000    -0.000000000     0.000000000
2
# Box:   30.0000   30.0000   30.0000
H        15.407217026    15.814099312    13.696319580     0.000000000     0.000000000    -0.000000000
H        17.262783051    13.945901871    15.583679199    -0.000000000    -0.000000000     0.000000000
2
# Box:   30.0000   30.0000   30.0000
H        15.472535133    15.825096130    13.685775757     0.000000000     0.000000000    -0.000000000
H        17.197463989    13.934904099    15.594223976    -0.000000000    -0.000000000     0.000000000
2
# Box:   30.0000   30.0000   30.0000
H        15.527691841    15.847269058    13.663949013     0.000000000     0.000000000    -0.000000000
H        17.142307281    13.912731171    15.616050720    -0.000000000    -0.000000000     0.000000000
2
# Box:   30.0000   30.0000   30.0000
H        15.572890282    15.881345749    13.630107880     0.000000000     0.000000000    -0.000000000
H        17.097108841    13.878655434    15.649891853    -0.000000000    -0.000000000     0.000000000
2
# Box:   30.0000   30.0000   30.0000
H        15.611571312    15.923906326    13.587708473     0.000000000     0.000000000    -0.000000000
H        17.058427811    13.836093903    15.692291260    -0.000000000    -0.000000000     0.000000000
2
# Box:   30.0000   30.0000   30.0000
H        15.647773743    15.969966888    13.541782379     0.000000000     0.000000000    -0.000000000
H        17.022226334    13.790034294    15.738218307    -0.000000000    -0.000000000     0.000000000
2
# Box:   30.0000   30.0000   30.0000
H        15.684307098    16.015449524    13.496437073     0.000000000     0.000000000    -0.000000000
H        16.985692978    13.744550705    15.783562660    -0.000000000    -0.000000000     0.000000000
2
# Box:   30.0000   30.0000   30.0000
H        15.722604752    16.057826996    13.454221725     0.000000000     0.000000000    -0.000000000
H        16.947395325    13.702173233    15.825778008    -0.000000000    -0.000000000     0.000000000
2
# Box:   30.0000   30.0000   30.0000
H        15.763205528    16.095766068    13.416476250     0.000000000     0.000000000    -0.000000000
H        16.906793594    13.664235115    15.863523483    -0.000000000    -0.000000000     0.000000000
2
# Box:   30.0000   30.0000   30.0000
H        15.806186676    16.128637314    13.383823395     0.000000000     0.000000000    -0.000000000
H        16.863813400    13.631362915    15.896176338    -0.000000000    -0.000000000     0.000000000
2
# Box:   30.0000   30.0000   30.0000
H        15.851417542    16.156192780    13.356518745     0.000000000     0.000000000    -0.000000000
H        16.818582535    13.603807449    15.923480988    -0.000000000    -0.000000000     0.000000000
2
# Box:   30.0000   30.0000   30.0000
H        15.898690224    16.178361893    13.334635735     0.000000000     0.000000000    -0.000000000
H        16.771308899    13.581639290    15.945363998    -0.000000000    -0.000000000     0.000000000
2
# Box:   30.0000   30.0000   30.0000
H        15.947776794    16.195135117    13.318177223     0.000000000     0.000000000    -0.000000000
H        16.722223282    13.564865112    15.961822510    -0.000000000    -0.000000000     0.000000000
2
# Box:   30.0000   30.0000   30.0000
H        15.998450279    16.206520081    13.307132721     0.000000000     0.000000000    -0.000000000
H        16.671548843    13.553480148    15.972867012    -0.000000000    -0.000000000     0.000000000
2
# Box:   30.0000   30.0000   30.0000
H        16.050491333    16.212516785    13.301505089     0.000000000     0.000000000    -0.000000000
H        16.619508743    13.547485352    15.978494644    -0.000000000    -0.000000000     0.000000000
2
# Box:   30.0000   30.0000   30.0000
H        16.103689194    16.213096619    13.301317215     0.000000000    -0.000000000     0.000000000
H        16.566310883    13.546904564    15.978681564    -0.000000000     0.000000000    -0.000000000
2
# Box:   30.0000   30.0000   30.0000
H        16.157835007    16.208206177    13.306621552     0.000000000    -0.000000000     0.000000000
H        16.512163162    13.551794052    15.973378181    -0.000000000     0.000000000    -0.000000000
2
# Box:   30.0000   30.0000   30.0000
H        16.212718964    16.197788239    13.317475319     0.000000000    -0.000000000     0.000000000
H        16.457281113    13.562211990    15.962524414    -0.000000000     0.000000000    -0.000000000
2
# Box:   30.0000   30.0000   30.0000
H        16.268117905    16.181795120    13.333920479     0.000000000    -0.000000000     0.000000000
H        16.401880264    13.578205109    15.946079254    -0.000000000     0.000000000    -0.000000000
2
# Box:   30.0000   30.0000   30.0000
H        16.323804855    16.160261154    13.355926514     0.000000000    -0.000000000     0.000000000
H        16.346195221    13.599739075    15.924073219    -0.000000000     0.000000000    -0.000000000
2
# Box:   30.0000   30.0000   30.0000
H        16.379539490    16.133430481    13.383247375     0.000000000    -0.000000000     0.000000000
H        16.290458679    13.626570702    15.896751404    -0.000000000     0.000000000    -0.000000000
2
# Box:   30.0000   30.0000   30.0000
H        16.435113907    16.101968765    13.415211678     0.000000000    -0.000000000     0.000000000
H        16.234886169    13.658031464    15.864788055    -0.000000000     0.000000000    -0.000000000
2
# Box:   30.0000   30.0000   30.0000
H        16.490447998    16.067384720    13.450306892     0.000000000    -0.000000000     0.000000000
H        16.179552078    13.692616463    15.829692841    -0.000000000     0.000000000    -0.000000000
2
# Box:   30.0000   30.0000   30.0000
H        16.545785904    16.032588959    13.485611916     0.000000000    -0.000000000     0.000000000
H        16.124214172    13.727412224    15.794387817    -0.000000000     0.000000000    -0.000000000
2
# Box:   30.0000   30.0000   30.0000
H        16.601997375    16.002286911    13.516417503     0.000000000    -0.000000000     0.000000000
H        16.068002701    13.757714272    15.763582230    -0.000000000     0.000000000    -0.000000000
2
# Box:   30.0000   30.0000   30.0000
H        16.660673141    15.982131004    13.537065506     0.000000000    -0.000000000     0.000000000
H        16.009326935    13.777870178    15.742933273    -0.000000000     0.000000000    -0.000000000
2
# Box:   30.0000   30.0000   30.0000
H        16.723438263    15.975755692    13.543925285     0.000000000     0.000000000    -0.000000000
H        15.946561813    13.784245491    15.736074448    -0.000000000    -0.000000000     0.000000000
2
# Box:   30.0000   30.0000   30.0000
H        16.790622711    15.981945992    13.538212776     0.000000000     0.000000000    -0.000000000
H        15.879377365    13.778055191    15.741786957    -0.000000000    -0.000000000     0.000000000
2
# Box:   30.0000   30.0000   30.0000
H        16.860872269    15.995689392    13.524946213     0.000000000     0.000000000    -0.000000000
H        15.809126854    13.764310837    15.755053520    -0.000000000    -0.000000000     0.000000000
2
# Box:   30.0000   30.0000   30.0000
H        16.932104111    16.011611938    13.509501457     0.000000000     0.000000000    -0.000000000
H        15.737895966    13.748388290    15.770498276    -0.000000000    -0.000000000     0.000000000
2
# Box:   30.0000   30.0000   30.0000
H        17.002485275    16.025970459    13.495618820     0.000000000     0.000000000    -0.000000000
H        15.667513847    13.734029770    15.784379959    -0.000000000    -0.000000000     0.000000000
2
# Box:   30.0000   30.0000   30.0000
H        17.070749283    16.036712646    13.485349655     0.000000000     0.000000000    -0.000000000
H        15.599249840    13.723287582    15.794650078    -0.000000000    -0.000000000     0.000000000
2
# Box:   30.0000   30.0000   30.0000
H        17.136108398    16.042896271    13.479631424     0.000000000     0.000000000    -0.000000000
H        15.533891678    13.717103958    15.800369263    -0.000000000    -0.000000000     0.000000000
2
# Box:   30.0000   30.0000   30.0000
H        17.198087692    16.044178009    13.478803635     0.000000000    -0.000000000     0.000000000
H        15.471911430    13.715822220    15.801196098    -0.000000000     0.000000000    -0.000000000
2
# Box:   30.0000   30.0000   30.0000
H        17.256395340    16.040504456    13.482915878     0.000000000    -0.000000000     0.000000000
H        15.413603783    13.719495773    15.797082901    -0.000000000     0.000000000    -0.000000000
2
# Box:   30.0000   30.0000   30.0000
H        17.310832977    16.031955719    13.491893768     0.000000000    -0.000000000     0.000000000
H        15.359167099    13.728044510    15.788105965    -0.000000000     0.000000000    -0.000000000
2
# Box:   30.0000   30.0000   30.0000
H        17.361232758    16.018644333    13.505619049     0.000000000    -0.000000000     0.000000000
H        15.308766365    13.741355896    15.774381638    -0.000000000     0.000000000    -0.000000000
2
# Box:   30.0000   30.0000   30.0000
H        17.407445908    16.000682831    13.523973465     0.000000000    -0.000000000     0.000000000
H        15.262554169    13.759317398    15.756026268    -0.000000000     0.000000000    -0.000000000
2
# Box:   30.0000   30.0000   30.0000
H        17.449304581    15.978172302    13.546857834     0.000000000    -0.000000000     0.000000000
H        15.220694542    13.781828880    15.733141899    -0.000000000     0.000000000    -0.000000000
2
# Box:   30.0000   30.0000   30.0000
H        17.486625671    15.951187134    13.574195862     0.000000000    -0.000000000     0.000000000
H        15.183374405    13.808813095    15.705803871    -0.000000000     0.000000000    -0.000000000
2
# Box:   30.0000   30.0000   30.0000
H        17.519201279    15.919791222    13.605923653     0.000000000    -0.000000000     0.000000000
H        15.150798798    13.840209007    15.674076080    -0.000000000     0.000000000    -0.000000000
2
# Box:   30.0000   30.0000   30.0000
H        17.546821594    15.884045601    13.641979218     0.000000000    -0.000000000     0.000000000
H        15.123178482    13.875955582    15.638019562    -0.000000000     0.000000000    -0.000000000
2
# Box:   30.0000   30.0000   30.0000
H        17.569295883    15.844036102    13.682273865     0.000000000    -0.000000000     0.000000000
H        15.100704193    13.915964127    15.597725868    -0.000000000     0.000000000    -0.000000000
2
# Box:   30.0000   30.0000   30.0000
H        17.586538315    15.799940109    13.726626396     0.000000000    -0.000000000     0.000000000
H        15.083461761    13.960061073    15.553373337    -0.000000000     0.000000000    -0.000000000
2
# Box:   30.0000   30.0000   30.0000
H        17.598716736    15.752116203    13.774677277     0.000000000    -0.000000000     0.000000000
H        15.071283340    14.007884026    15.505322456    -0.000000000     0.000000000    -0.000000000
2
# Box:   30.0000   30.0000   30.0000
H        17.606561661    15.701298714    13.825701714     0.000000000    -0.000000000     0.000000000
H        15.063437462    14.058702469    15.454298019    -0.000000000     0.000000000    -0.000000000
2
# Box:   30.0000   30.0000   30.0000
H        17.611927032    15.648856163    13.878336906     0.000000000    -0.000000000     0.000000000
H        15.058073044    14.111145020    15.401662827    -0.000000000     0.000000000    -0.000000000
2
# Box:   30.0000   30.0000   30.0000
H        17.618497849    15.597105026    13.930287361     0.000000000    -0.000000000     0.000000000
H        15.051502228    14.162895203    15.349712372    -0.000000000     0.000000000    -0.000000000
2
# Box:   30.0000   30.0000   30.0000
H        17.632167816    15.549274445    13.978359222     0.000000000    -0.000000000     0.000000000
H        15.037831306    14.210725784    15.301639557    -0.000000000     0.000000000    -0.000000000
2
# Box:   30.0000   30.0000   30.0000
H        17.659484863    15.508442879    14.019512177     0.000000000    -0.000000000     0.000000000
H        15.010514259    14.251557350    15.260487556    -0.000000000     0.000000000    -0.000000000
2
# Box:   30.0000   30.0000   30.0000
H        17.703636169    15.475601196    14.052774429     0.000000000    -0.000000000     0.000000000
H        14.966362953    14.284399986    15.227224350    -0.000000000     0.000000000    -0.000000000
2
# Box:   30.0000   30.0000   30.0000
H        17.761768341    15.448883057    14.080001831     0.000000000    -0.000000000     0.000000000
H        14.908229828    14.311118126    15.199996948    -0.000000000     0.000000000    -0.000000000
2
# Box:   30.0000   30.0000   30.0000
H        17.827274323    15.425147057    14.104291916     0.000000000    -0.000000000     0.000000000
H        14.842725754    14.334854126    15.175706863    -0.000000000     0.000000000    -0.000000000
2
# Box:   30.0000   30.0000   30.0000
H        17.893796921    15.401812553    14.128185272     0.000000000    -0.000000000     0.000000000
H        14.776202202    14.358187675    15.151814461    -0.000000000     0.000000000    -0.000000000
2
# Box:   30.0000   30.0000   30.0000
H        17.957052231    15.377398491    14.153137207     0.000000000    -0.000000000     0.000000000
H        14.712947845    14.382601738    15.126862526    -0.000000000     0.000000000    -0.000000000
2
# Box:   30.0000   30.0000   30.0000
H        18.014646530    15.351256371    14.179781914     0.000000000    -0.000000000     0.000000000
H        14.655352592    14.408744812    15.100217819    -0.000000000     0.000000000    -0.000000000
2
# Box:   30.0000   30.0000   30.0000
H        18.065408707    15.323198318    14.208297729     0.000000000    -0.000000000     0.000000000
H        14.604591370    14.436802864    15.071702003    -0.000000000     0.000000000    -0.000000000
2
# Box:   30.0000   30.0000   30.0000
H        18.108823776    15.293256760    14.238645554     0.000000000    -0.000000000     0.000000000
H        14.561176300    14.466743469    15.041353226    -0.000000000     0.000000000    -0.000000000
2
# Box:   30.0000   30.0000   30.0000
H        18.144714355    15.261564255    14.270696640     0.000000000    -0.000000000     0.000000000
H        14.525284767    14.498435974    15.009303093    -0.000000000     0.000000000    -0.000000000
2
# Box:   30.0000   30.0000   30.0000
H        18.173038483    15.228275299    14.304293633     0.000000000    -0.000000000     0.000000000
H        14.496960640    14.531725883    14.975706100    -0.000000000     0.000000000    -0.000000000
2
# Box:   30.0000   30.0000   30.0000
H        18.193798065    15.193552971    14.339270592     0.000000000    -0.000000000     0.000000000
H        14.476202011    14.566448212    14.940729141    -0.000000000     0.000000000    -0.000000000
2
# Box:   30.0000   30.0000   30.0000
H        18.206991196    15.157555580    14.375472069     0.000000000    -0.000000000     0.000000000
H        14.463008881    14.602445602    14.904527664    -0.000000000     0.000000000    -0.000000000
2
# Box:   30.0000   30.0000   30.0000
H        18.212581635    15.120430946    14.412747383     0.000000000    -0.000000000     0.000000000
H        14.457417488    14.639569283    14.867252350    -0.000000000     0.000000000    -0.000000000
2
# Box:   30.0000   30.0000   30.0000
H        18.210504532    15.082322121    14.450951576    -0.000000000    -0.000000000     0.000000000
H        14.459495544    14.677678108    14.829048157     0.000000000     0.000000000    -0.000000000
2
# Box:   30.0000   30.0000   30.0000
H        18.200664520    15.043377876    14.489937782    -0.000000000    -0.000000000     0.000000000
H        14.469335556    14.716623306    14.790061951     0.000000000     0.000000000    -0.000000000
2
# Box:   30.0000   30.0000   30.0000
H        18.182973862    15.003746033    14.529554367    -0.000000000    -0.000000000     0.000000000
H        14.487026215    14.756255150    14.750444412     0.000000000     0.000000000    -0.000000000
2
# Box:   30.0000   30.0000   30.0000
H        18.157421112    14.963588715    14.569641113    -0.000000000    -0.000000000     0.000000000
H        14.512578964    14.796411514    14.710358620     0.000000000     0.000000000    -0.000000000
2
# Box:   30.0000   30.0000   30.0000
H        18.124200821    14.923078537    14.610023499    -0.000000000    -0.000000000     0.000000000
H        14.545799255    14.836921692    14.669976234     0.000000000     0.000000000    -0.000000000
2
# Box:   30.0000   30.0000   30.0000
H        18.083976746    14.882394791    14.650527954    -0.000000000    -0.000000000     0.000000000
H        14.586021423    14.877605438    14.629470825     0.000000000     0.000000000    -0.000000000
2
# Box:   30.0000   30.0000   30.0000
H        18.038362503    14.841697693    14.691008568    -0.000000000    -0.000000000     0.000000000
H        14.631637573    14.918303490    14.588991165     0.000000000     0.000000000    -0.000000000
2
# Box:   30.0000   30.0000   30.0000
H        17.990648270    14.801029205    14.731441498    -0.000000000    -0.000000000     0.000000000
H        14.679350853    14.958971977    14.548558235     0.000000000     0.000000000    -0.000000000
2
# Box:   30.0000   30.0000   30.0000
H        17.946598053    14.760152817    14.772109985    -0.000000000    -0.000000000     0.000000000
H        14.723402023    14.999847412    14.507889748     0.000000000     0.000000000    -0.000000000
2
# Box:   30.0000   30.0000   30.0000
H        17.914093018    14.718380928    14.813764572    -0.000000000    -0.000000000     0.000000000
H        14.755906105    15.041619301    14.466236115     0.000000000     0.000000000    -0.000000000
2
# Box:   30.0000   30.0000   30.0000
H        17.900003433    14.674702644    14.857465744    -0.000000000    -0.000000000     0.000000000
H        14.769996643    15.085297585    14.422533035     0.000000000     0.000000000    -0.000000000
2
# Box:   30.0000   30.0000   30.0000
H        17.905334473    14.628490448    14.903851509     0.000000000    -0.000000000     0.000000000
H        14.764665604    15.131510735    14.376148224    -0.000000000     0.000000000    -0.000000000
2
# Box:   30.0000   30.0000   30.0000
H        17.924398422    14.580115318    14.952508926     0.000000000    -0.000000000     0.000000000
H        14.745601654    15.179885864    14.327489853    -0.000000000     0.000000000    -0.000000000
2
# Box:   30.0000   30.0000   30.0000
H        17.949199677    14.530693054    15.002259254     0.000000000    -0.000000000     0.000000000
H        14.720800400    15.229307175    14.277740479    -0.000000000     0.000000000    -0.000000000
2
# Box:   30.0000   30.0000   30.0000
H        17.973407745    14.481422424    15.051851273     0.000000000    -0.000000000     0.000000000
H        14.696592331    15.278577805    14.228148460    -0.000000000     0.000000000    -0.000000000
2
# Box:   30.0000   30.0000   30.0000
H        17.993270874    14.433219910    15.100343704     0.000000000    -0.000000000     0.000000000
H        14.676729202    15.326781273    14.179656982    -0.000000000     0.000000000    -0.000000000
2
# Box:   30.0000   30.0000   30.0000
H        18.006938934    14.386691093    15.147109032     0.000000000    -0.000000000     0.000000000
H        14.663061142    15.373310089    14.132890701    -0.000000000     0.000000000    -0.000000000
2
# Box:   30.0000   30.0000   30.0000
H        18.013662338    14.342212677    15.191766739     0.000000000    -0.000000000     0.000000000
H        14.656337738    15.417787552    14.088232040    -0.000000000     0.000000000    -0.000000000
2
# Box:   30.0000   30.0000   30.0000
H        18.013244629    14.300021172    15.234077454    -0.000000000    -0.000000000     0.000000000
H        14.656754494    15.459980011    14.045923233     0.000000000     0.000000000    -0.000000000
2
# Box:   30.0000   30.0000   30.0000
H        18.005731583    14.260282516    15.273876190    -0.000000000    -0.000000000     0.000000000
H        14.664267540    15.499717712    14.006123543     0.000000000     0.000000000    -0.000000000
2
# Box:   30.0000   30.0000   30.0000
H        17.991270065    14.223118782    15.311039925    -0.000000000    -0.000000000     0.000000000
H        14.678730011    15.536881447    13.968959808     0.000000000     0.000000000    -0.000000000
2
# Box:   30.0000   30.0000   30.0000
H        17.970020294    14.188651085    15.345451355    -0.000000000    -0.000000000     0.000000000
H        14.699978828    15.571350098    13.934547424     0.000000000     0.000000000    -0.000000000
2
# Box:   30.0000   30.0000   30.0000
H        17.942125320    14.156991005    15.376997948    -0.000000000    -0.000000000     0.000000000
H        14.727873802    15.603009224    13.903001785     0.000000000     0.000000000    -0.000000000
2
# Box:   30.0000   30.0000   30.0000
H        17.907699585    14.128270149    15.405550003    -0.000000000    -0.000000000     0.000000000
H        14.762300491    15.631731033    13.874449730     0.000000000     0.000000000    -0.000000000
2
# Box:   30.0000   30.0000   30.0000
H        17.866828918    14.102629662    15.430964470    -0.000000000    -0.000000000     0.000000000
H        14.803171158    15.657371521    13.849035263     0.000000000     0.000000000    -0.000000000
2
# Box:   30.0000   30.0000   30.0000
H        17.819583893    14.080223083    15.453086853    -0.000000000    -0.000000000     0.000000000
H        14.850416183    15.679778099    13.826912880     0.000000000     0.000000000    -0.000000000
2
# Box:   30.0000   30.0000   30.0000
H        17.766063690    14.061197281    15.471772194    -0.000000000    -0.000000000     0.000000000
H        14.903936386    15.698803902    13.808227539     0.000000000     0.000000000    -0.000000000
2
# Box:   30.0000   30.0000   30.0000
H        17.706453323    14.045657158    15.486917496    -0.000000000    -0.000000000     0.000000000
H        14.963545799    15.714344025    13.793082237     0.000000000     0.000000000    -0.000000000
2
# Box:   30.0000   30.0000   30.0000
H        17.641149521    14.033579826    15.498546600    -0.000000000    -0.000000000     0.000000000
H        15.028849602    15.726421356    13.781453133     0.000000000     0.000000000    -0.000000000
2
# Box:   30.0000   30.0000   30.0000
H        17.570972443    14.024652481    15.506978989    -0.000000000    -0.000000000     0.000000000
H        15.099027634    15.735348701    13.773020744     0.000000000     0.000000000    -0.000000000
2
# Box:   30.0000   30.0000   30.0000
H        17.497524261    14.017972946    15.513134003    -0.000000000    -0.000000000     0.000000000
H        15.172473907    15.742027283    13.766865730     0.000000000     0.000000000    -0.000000000
2
# Box:   30.0000   30.0000   30.0000
H        17.423669815    14.011565208    15.519017220    -0.000000000    -0.000000000     0.000000000
H        15.246330261    15.748435020    13.760982513     0.000000000     0.000000000    -0.000000000
2
# Box:   30.0000   30.0000   30.0000
H        17.353765488    14.001952171    15.528141022    -0.000000000    -0.000000000     0.000000000
H        15.316233635    15.758048058    13.751858711     0.000000000     0.000000000    -0.000000000
2
# Box:   30.0000   30.0000   30.0000
H        17.292789459    13.984588623    15.545105934    -0.000000000    -0.000000000     0.000000000
H        15.377208710    15.775412560    13.734893799     0.000000000     0.000000000    -0.000000000
2
# Box:   30.0000   30.0000   30.0000
H        17.243703842    13.956087112    15.573326111    -0.000000000    -0.000000000     0.000000000
H        15.426296234    15.803914070    13.706673622     0.000000000     0.000000000    -0.000000000
2
# Box:   30.0000   30.0000   30.0000
H        17.205207825    13.916859627    15.612383842    -0.000000000    -0.000000000     0.000000000
H        15.464792252    15.843141556    13.667615891     0.000000000     0.000000000    -0.000000000
2
# Box:   30.0000   30.0000   30.0000
H        17.172939301    13.870810509    15.658329964    -0.000000000    -0.000000000     0.000000000
H        15.497060776    15.889190674    13.621669769     0.000000000     0.000000000    -0.000000000
2
# Box:   30.0000   30.0000   30.0000
H        17.142515182    13.822599411    15.706457138    -0.000000000    -0.000000000     0.000000000
H        15.527484894    15.937400818    13.573542595     0.000000000     0.000000000    -0.000000000
2
# Box:   30.0000   30.0000   30.0000
H        17.111093521    13.775734901    15.753226280    -0.000000000    -0.000000000     0.000000000
H        15.558905602    15.984266281    13.526773453     0.000000000     0.000000000    -0.000000000
2
# Box:   30.0000   30.0000   30.0000
H        17.077276230    13.732295036    15.796545029    -0.000000000    -0.000000000     0.000000000
H        15.592722893    16.027706146    13.483455658     0.000000000     0.000000000    -0.000000000
2
# Box:   30.0000   30.0000   30.0000
H        17.040554047    13.693356514    15.835327148    -0.000000000    -0.000000000     0.000000000
H        15.629445076    16.066644669    13.444672585     0.000000000     0.000000000    -0.000000000
2
# Box:   30.0000   30.0000   30.0000
H        17.000864029    13.659410477    15.869077682    -0.000000000    -0.000000000     0.000000000
H        15.669135094    16.100589752    13.410922050     0.000000000     0.000000000    -0.000000000
2
# Box:   30.0000   30.0000   30.0000
H        16.958341599    13.630658150    15.897597313    -0.000000000    -0.000000000     0.000000000
H        15.711658478    16.129343033    13.382402420     0.000000000     0.000000000    -0.000000000
2
# Box:   30.0000   30.0000   30.0000
H        16.913196564    13.607162476    15.920828819    -0.000000000    -0.000000000     0.000000000
H        15.756802559    16.152837753    13.359170914     0.000000000     0.000000000    -0.000000000
2
# Box:   30.0000   30.0000   30.0000
H        16.865657806    13.588932991    15.938758850    -0.000000000    -0.000000000     0.000000000
H        15.804342270    16.171068192    13.341240883     0.000000000     0.000000000    -0.000000000
2
# Box:   30.0000   30.0000   30.0000
H        16.815950394    13.575975418    15.951386452    -0.000000000    -0.000000000     0.000000000
H        15.854048729    16.184024811    13.328613281     0.000000000     0.000000000    -0.000000000
2
# Box:   30.0000   30.0000   30.0000
H        16.764293671    13.568313599    15.958689690    -0.000000000    -0.000000000     0.000000000
H        15.905706406    16.191688538    13.321310043     0.000000000     0.000000000    -0.000000000
2
# Box:   30.0000   30.0000   30.0000
H        16.710886002    13.565992355    15.960622787    -0.000000000     0.000000000    -0.000000000
H        15.959114075    16.194007874    13.319376945     0.000000000    -0.000000000     0.000000000
2
# Box:   30.0000   30.0000   30.0000
H        16.655931473    13.569079399    15.957120895    -0.000000000     0.000000000    -0.000000000
H        16.014068604    16.190921783    13.322878838     0.000000000    -0.000000000     0.000000000
2
# Box:   30.0000   30.0000   30.0000
H        16.599634171    13.577648163    15.948110580    -0.000000000     0.000000000    -0.000000000
H        16.070363998    16.182352066    13.331889153     0.000000000    -0.000000000     0.000000000
2
# Box:   30.0000   30.0000   30.0000
H        16.542215347    13.591745377    15.933550835    -0.000000000     0.000000000    -0.000000000
H        16.127784729    16.168254852    13.346448898     0.000000000    -0.000000000     0.000000000
2
# Box:   30.0000   30.0000   30.0000
H        16.483917236    13.611306190    15.913499832    -0.000000000     0.000000000    -0.000000000
H        16.186082840    16.148694992    13.366499901     0.000000000    -0.000000000     0.000000000
2
# Box:   30.0000   30.0000   30.0000
H        16.425012589    13.636025429    15.888275146    -0.000000000     0.000000000    -0.000000000
H        16.244987488    16.123975754    13.391724586     0.000000000    -0.000000000     0.000000000
2
# Box:   30.0000   30.0000   30.0000
H        16.365783691    13.665069580    15.858707428    -0.000000000     0.000000000    -0.000000000
H        16.304214478    16.094930649    13.421292305     0.000000000    -0.000000000     0.000000000
2
# Box:   30.0000   30.0000   30.0000
H        16.306472778    13.696623802    15.826622009    -0.000000000     0.000000000    -0.000000000
H        16.363527298    16.063377380    13.453377724     0.000000000    -0.000000000     0.000000000
2
# Box:   30.0000   30.0000   30.0000
H        16.247104645    13.727304459    15.795412064    -0.000000000     0.000000000    -0.000000000
H        16.422895432    16.032695770    13.484587669     0.000000000    -0.000000000     0.000000000
2
# Box:   30.0000   30.0000   30.0000
H        16.187221527    13.751939774    15.770262718    -0.000000000     0.000000000    -0.000000000
H        16.482776642    16.008060455    13.509737015     0.000000000    -0.000000000     0.000000000
2
# Box:   30.0000   30.0000   30.0000
H        16.125774384    13.764971733    15.756736755    -0.000000000     0.000000000    -0.000000000
H        16.544225693    15.995029449    13.523262978     0.000000000    -0.000000000     0.000000000
2
# Box:   30.0000   30.0000   30.0000
H        16.061664581    13.763829231    15.757407188    -0.000000000    -0.000000000     0.000000000
H        16.608335495    15.996170998    13.522592545     0.000000000     0.000000000    -0.000000000
2
# Box:   30.0000   30.0000   30.0000
H        15.994741440    13.751019478    15.769762039    -0.000000000    -0.000000000     0.000000000
H        16.675258636    16.008981705    13.510237694     0.000000000     0.000000000    -0.000000000
2
# Box:   30.0000   30.0000   30.0000
H        15.926017761    13.732052803    15.788274765    -0.000000000    -0.000000000     0.000000000
H        16.743982315    16.027948380    13.491724968     0.000000000     0.000000000    -0.000000000
2
# Box:   30.0000   30.0000   30.0000
H        15.856972694    13.712067604    15.807808876    -0.000000000    -0.000000000     0.000000000
H        16.813026428    16.047933578    13.472190857     0.000000000     0.000000000    -0.000000000
