4
# Step: 0 Box:    8.0000    8.0000    8.0000 
H         1.959535916    -0.149324890     1.417817117     0.001036560     0.000689531    -0.000918791
H         1.753644890    -0.096864074     0.419980687     0.000217707    -0.000249240    -0.000510237
H         2.473946499    -0.747344664     0.239464212    -0.002011906    -0.000583284    -0.000385196
H         3.076556719    -0.171386672     0.716419684     0.000757639     0.000142993     0.001814224
4
# Step: 1 Box:    8.0000    8.0000    8.0000 
H         2.060031007    -0.077418734     1.308774325     0.000717286     0.000765652    -0.000736698
H         1.713010380    -0.066303459     0.384562053    -0.000667011     0.000610164    -0.000266827
H         2.405104051    -0.781904751     0.269606857     0.001027243     0.000324632     0.001096807
H         3.085538586    -0.239293356     0.830738466    -0.001077519    -0.001700448    -0.000093282
4
# Step: 2 Box:    8.0000    8.0000    8.0000 
H         2.086233042     0.057566693     1.292874306    -0.000026122     0.001545120     0.000527701
H         1.765252767    -0.065389556     0.380246824     0.001147439    -0.000335140    -0.000156565
H         2.387156531    -0.812229395     0.249704656    -0.001316177    -0.001045327    -0.001337363
H         3.025041684    -0.344868043     0.870855914     0.000194860    -0.000164654     0.000966228
4
# Step: 3 Box:    8.0000    8.0000    8.0000 
H         2.091384374     0.171876320     1.328088835    -0.000121666     0.000399577    -0.000667534
H         1.800426858    -0.019685778     0.322380996     0.000018119     0.000973484    -0.000163674
H         2.379277615    -0.868757039     0.271769606     0.000601687     0.000141616     0.001486506
H         2.992595177    -0.448353803     0.871442264    -0.000498140    -0.001514677    -0.000655299
4
# Step: 4 Box:    8.0000    8.0000    8.0000 
H         2.058671824     0.192174955     1.228971816    -0.000166176     0.000107986    -0.000021476
H         1.870090468     0.037458880     0.322124204     0.000742188     0.000288015    -0.000996157
H         2.256085117    -0.872292647     0.339565300    -0.001982101    -0.000196806     0.000344147
H         3.078836616    -0.522261487     0.903020381     0.001406089    -0.000199195     0.000673486
4
# Step: 5 Box:    8.0000    8.0000    8.0000 
H         2.033786257     0.212631457     1.244668786    -0.000509269     0.000528315    -0.000770686
H         1.958873475     0.088690245     0.208284842     0.001350528     0.000152039     0.000502537
H         2.212629526    -0.865926258     0.482270026     0.000249052     0.000151369     0.001293758
H         3.058394766    -0.600315744     0.858458046    -0.001090311    -0.000831723    -0.001025610
4
# Step: 6 Box:    8.0000    8.0000    8.0000 
H         1.961621167     0.330373245     1.192683174    -0.000765121     0.001421923     0.000674260
H         2.126537163     0.050884440     0.283335888     0.001222823    -0.000351854    -0.000643759
H         2.102419079    -0.895068258     0.519186667    -0.001182116    -0.000367132     0.000154514
H         3.073106615    -0.651109727     0.798475971     0.000724414    -0.000702937    -0.000185015
