2
# Box:   30.0000   30.0000   30.0000
H        14.615896225    14.995923996    14.724621773    -0.000000000     0.000000000    -0.000000000
H        18.054105759    14.764076233    14.555377960     0.000000000    -0.000000000     0.000000000
2
# Box:   30.0000   30.0000   30.0000
H        14.613212585    14.998947144    14.722837448    -0.000000000     0.000000000    -0.000000000
H        18.056789398    14.761053085    14.557162285     0.000000000    -0.000000000     0.000000000
2
# Box:   30.0000   30.0000   30.0000
H        14.614733696    15.001678467    14.720849037     0.000000000     0.000000000    -0.000000000
H        18.055267334    14.758321762    14.559150696    -0.000000000    -0.000000000     0.000000000
2
# Box:   30.0000   30.0000   30.0000
H        14.620357513    15.004120827    14.718667984     0.000000000     0.000000000    -0.000000000
H        18.049642563    14.755879402    14.561330795    -0.000000000    -0.000000000     0.000000000
2
# Box:   30.0000   30.0000   30.0000
H        14.629673004    15.006294250    14.716318130     0.000000000     0.000000000    -0.000000000
H        18.040328979    14.753705978    14.563682556    -0.000000000    -0.000000000     0.000000000
2
# Box:   30.0000   30.0000   30.0000
H        14.641909599    15.008253098    14.713835716     0.000000000     0.000000000    -0.000000000
H        18.028091431    14.751748085    14.566164017    -0.000000000    -0.000000000     0.000000000
2
# Box:   30.0000   30.0000   30.0000
H        14.655916214    15.010079384    14.711276054     0.000000000     0.000000000    -0.000000000
H        18.014083862    14.749921799    14.568723679    -0.000000000    -0.000000000     0.000000000
2
# Box:   30.0000   30.0000   30.0000
H        14.670134544    15.011887550    14.708708763     0.000000000     0.000000000    -0.000000000
H        17.999866486    14.748113632    14.571290970    -0.000000000    -0.000000000     0.000000000
2
# Box:   30.0000   30.0000   30.0000
H        14.682694435    15.013828278    14.706211090     0.000000000     0.000000000    -0.000000000
H        17.987306595    14.746171951    14.573788643    -0.000000000    -0.000000000     0.000000000
2
# Box:   30.0000   30.0000   30.0000
H        14.691671371    15.016058922    14.703854561     0.000000000     0.000000000    -0.000000000
H        17.978328705    14.743942261    14.576145172    -0.000000000    -0.000000000     0.000000000
