2
# Box:   30.0000   30.0000   30.0000
H        14.615896225    14.995923996    14.724621773     0.000000000    -0.000000000     0.000000000
H        18.054105759    14.764076233    14.555377960    -0.000000000     0.000000000    -0.000000000
2
# Box:   30.0000   30.0000   30.0000
H        14.622584343    14.992631912    14.726209641     0.000000000    -0.000000000     0.000000000
H        18.047416687    14.767369270    14.553790092    -0.000000000     0.000000000    -0.000000000
2
# Box:   30.0000   30.0000   30.0000
H        14.632753372    14.989110947    14.727622032     0.000000000    -0.000000000     0.000000000
H        18.037246704    14.770889282    14.552377701    -0.000000000     0.000000000    -0.000000000
2
# Box:   30.0000   30.0000   30.0000
H        14.645513535    14.985424042    14.728904724     0.000000000    -0.000000000     0.000000000
H        18.024486542    14.774576187    14.551095009    -0.000000000     0.000000000    -0.000000000
2
# Box:   30.0000   30.0000   30.0000
H        14.659575462    14.981655121    14.730115891     0.000000000    -0.000000000     0.000000000
H        18.010425568    14.778346062    14.549883842    -0.000000000     0.000000000    -0.000000000
2
# Box:   30.0000   30.0000   30.0000
H        14.673259735    14.977907181    14.731348991     0.000000000    -0.000000000     0.000000000
H        17.996742249    14.782094002    14.548650742    -0.000000000     0.000000000    -0.000000000
2
# Box:   30.0000   30.0000   30.0000
H        14.684638977    14.974294662    14.732707977     0.000000000    -0.000000000     0.000000000
H        17.985361099    14.785705566    14.547291756    -0.000000000     0.000000000    -0.000000000
2
# Box:   30.0000   30.0000   30.0000
H        14.691862106    14.970920563    14.734301567     0.000000000    -0.000000000     0.000000000
H        17.978137970    14.789080620    14.545698166    -0.000000000     0.000000000    -0.000000000
2
# Box:   30.0000   30.0000   30.0000
H        14.693621635    14.967847824    14.736207962    -0.000000000    -0.000000000     0.000000000
H        17.976379395    14.792152405    14.543791771     0.000000000     0.000000000    -0.000000000
2
# Box:   30.0000   30.0000   30.0000
H        14.689571381    14.965086937    14.738455772    -0.000000000    -0.000000000     0.000000000
H        17.980428696    14.794913292    14.541543961     0.000000000     0.000000000    -0.000000000
