2
# Step: 0 Box:    3.0000    3.0000    3.0000
H        -0.127151666     0.044750746     0.128932198     3.467601115    -0.122862993    -0.603375474
H         0.238436202     0.177051236     0.013856688    -3.076989040     0.541067280    -0.725352269
2
# Step: 1 Box:    3.0000    3.0000    3.0000
H        -0.119954885     0.044659129     0.127596100     3.740614971     0.019539267    -0.732324009
H         0.231961912     0.178057022     0.012484900    -3.416274527     0.454582493    -0.631105706
2
# Step: 2 Box:    3.0000    3.0000    3.0000
H        -0.112133659     0.044812352     0.126034529     4.071169758     0.134208159    -0.835496961
H         0.224812789     0.178774002     0.011366427    -3.740651876     0.265130018    -0.489722511
2
# Step: 3 Box:    3.0000    3.0000    3.0000
H        -0.103675236     0.045227198     0.124247412     4.406797775     0.277053237    -0.919711927
H         0.216979717     0.179168970     0.010530863    -4.077511015     0.136890324    -0.335538511
2
# Step: 4 Box:    3.0000    3.0000    3.0000
H        -0.094522944     0.045869101     0.122276699     4.716785388     0.402012727    -1.037628792
H         0.208444989     0.179312497     0.009965312    -4.422360080     0.013079441    -0.219475334
2
# Step: 5 Box:    3.0000    3.0000    3.0000
H        -0.084945309     0.046727482     0.120141500     4.788056658     0.429155433    -1.052213049
H         0.199397765     0.179271203     0.009651269    -4.558411842    -0.021449996    -0.140174683
