2
# Step: 0 Box:    3.0000    3.0000    3.0000
H        -0.192310652     0.087866752     0.130186828     0.465320482     1.026236023    -0.218880793
H         0.283725782     0.111340656     0.084541421    -0.951095392    -1.480889000     1.589322469
2
# Step: 1 Box:    3.0000    3.0000    3.0000
H        -0.191214253     0.089964257     0.129777152     0.617566112     1.074307616    -0.187598878
H         0.281648847     0.108375217     0.087702809    -1.107122586    -1.513284386     1.558106568
2
# Step: 2 Box:    3.0000    3.0000    3.0000
H        -0.189850337     0.092160923     0.129444397     0.748661184     1.086656645    -0.151391686
H         0.279292006     0.105337392     0.090844218    -1.252210768    -1.519078241     1.583746481
2
# Step: 3 Box:    3.0000    3.0000    3.0000
H        -0.188147056     0.094349996     0.129156448     0.937267156     1.088002026    -0.135641304
H         0.276669079     0.102314830     0.094010523    -1.354060149    -1.525731145     1.613250516
2
# Step: 4 Box:    3.0000    3.0000    3.0000
H        -0.186122285     0.096538365     0.128872399     1.058031889     1.108514106    -0.139298980
H         0.273812280     0.099314134     0.097212381    -1.524882705    -1.497065200     1.612069711
2
# Step: 5 Box:    3.0000    3.0000    3.0000
H        -0.183845544     0.098760839     0.128552273     1.224186403     1.142832344    -0.143853251
H         0.270616710     0.096371389     0.100530214    -1.667617286    -1.475819372     1.685485636
2
# Step: 6 Box:    3.0000    3.0000    3.0000
H        -0.181217600     0.101067796     0.128237971     1.415312001     1.154853561    -0.196532783
H         0.267149305     0.093401872     0.103879279    -1.809783428    -1.487426541     1.696966678
2
# Step: 7 Box:    3.0000    3.0000    3.0000
H        -0.178207446     0.103381727     0.127862032     1.611562705     1.129932086    -0.193019615
H         0.263348096     0.090392581     0.107236756    -2.002651371    -1.478760735     1.675269794
2
# Step: 8 Box:    3.0000    3.0000    3.0000
H        -0.174734619     0.105580833     0.127405189     1.857783853     1.090719240    -0.243006348
H         0.259111580     0.087460760     0.110618281    -2.230223427    -1.446953887     1.718880760
2
# Step: 9 Box:    3.0000    3.0000    3.0000
H        -0.170814191     0.107743854     0.126919746     2.087697145     1.076177161    -0.256685595
H         0.254411436     0.084522197     0.113992682    -2.479412654    -1.452418337     1.689698524
2
# Step: 10 Box:    3.0000    3.0000    3.0000
H        -0.166342876     0.109912312     0.126397946     2.388314017     1.098176087    -0.289990726
H         0.249189395     0.081654722     0.117349765    -2.738779430    -1.399524432     1.656222644
2
# Step: 11 Box:    3.0000    3.0000    3.0000
H        -0.161199517     0.112067982     0.125831571     2.738326099     1.067714486    -0.270539596
H         0.243435454     0.078798623     0.120650743    -3.020947049    -1.436241925     1.649836485
