4
# Step: 0 Box:    8.0000    8.0000    8.0000 
H         2.488329954     0.286969840     1.135506017    -0.000792911     0.000062884     0.000777311
H         2.381849592    -0.658002209     0.803126052    -0.000342845    -0.000446106     0.000191125
H         1.915394403    -0.284569901     0.010819086     0.000106608     0.000123231    -0.000542465
H         1.613452437     0.553373600     0.501120904     0.001029148     0.000259991    -0.000425971
4
# Step: 1 Box:    8.0000    8.0000    8.0000 
H         2.422199305     0.261502127     1.212133524    -0.000451960    -0.000285831     0.000582191
H         2.310144037    -0.640672590     0.821940143    -0.000954640     0.000284482    -0.000086749
H         1.944869649    -0.272337507    -0.042945165     0.000601419     0.000075978    -0.000103858
H         1.721813395     0.549279301     0.459443557     0.000805182    -0.000074629    -0.000391584
4
# Step: 2 Box:    8.0000    8.0000    8.0000 
H         2.383513102     0.246873292     1.248030814    -0.000281902    -0.000378387    -0.000000355
H         2.202914990    -0.679567699     0.836859617    -0.000972966    -0.000493734     0.000530451
H         2.039323353    -0.250476586    -0.055678468     0.001087662     0.000268973    -0.000232696
H         1.773274941     0.580942323     0.421360095     0.000167206     0.000603148    -0.000297399
4
# Step: 3 Box:    8.0000    8.0000    8.0000 
H         2.366556870     0.168213875     1.246145371     0.000088094    -0.000602345     0.000282876
H         2.086852589    -0.673978458     0.860327634    -0.001232690     0.000216845    -0.000289266
H         2.165703854    -0.223241619    -0.023716233     0.001117821     0.000290021     0.000718988
H         1.779913073     0.626777531     0.367815286     0.000026775     0.000095479    -0.000712597
4
# Step: 4 Box:    8.0000    8.0000    8.0000 
H         2.396523903     0.118791928     1.331229739     0.000193945    -0.000744133     0.001087611
H         1.936961631    -0.646970862     0.829375101    -0.001151844     0.000729004    -0.000180860
H         2.291340149    -0.195208177     0.003138914     0.001044033     0.000130721    -0.000085126
H         1.774200703     0.621158442     0.286828306    -0.000086133    -0.000115592    -0.000821625
4
# Step: 5 Box:    8.0000    8.0000    8.0000 
H         2.393801194     0.001099513     1.450822807    -0.000033021    -0.001076386     0.001064085
H         1.871510065    -0.543281084     0.803982446    -0.000476500     0.000513944    -0.000134678
H         2.348321139    -0.177374755     0.035799126     0.000284527     0.000302182     0.000535264
H         1.785393988     0.617327656     0.159967679     0.000224993     0.000260260    -0.001464671
