2
# Box:   30.0000   30.0000   30.0000
H        14.735046387    14.538646698    14.039493561     0.000000000    -0.000000000    -0.000000000
H        17.934951782    15.221353531    15.240506172    -0.000000000     0.000000000     0.000000000
2
# Box:   30.0000   30.0000   30.0000
H        14.802800179    14.529529572    14.033551216     0.000000000    -0.000000000    -0.000000000
H        17.867198944    15.230470657    15.246448517    -0.000000000     0.000000000     0.000000000
2
# Box:   30.0000   30.0000   30.0000
H        14.870289803    14.520332336    14.027479172     0.000000000    -0.000000000    -0.000000000
H        17.799709320    15.239667892    15.252521515    -0.000000000     0.000000000     0.000000000
2
# Box:   30.0000   30.0000   30.0000
H        14.928399086    14.508796692    14.017436981     0.000000000    -0.000000000    -0.000000000
H        17.741600037    15.251203537    15.262563705    -0.000000000     0.000000000     0.000000000
2
# Box:   30.0000   30.0000   30.0000
H        14.965013504    14.491552353    13.997826576     0.000000000    -0.000000000    -0.000000000
H        17.704984665    15.268448830    15.282173157    -0.000000000     0.000000000     0.000000000
2
# Box:   30.0000   30.0000   30.0000
H        14.973095894    14.466210365    13.964838982    -0.000000000    -0.000000000    -0.000000000
H        17.696903229    15.293789864    15.315160751     0.000000000     0.000000000     0.000000000
2
# Box:   30.0000   30.0000   30.0000
H        14.957890511    14.433828354    13.920353889    -0.000000000    -0.000000000    -0.000000000
H        17.712108612    15.326171875    15.359645844     0.000000000     0.000000000     0.000000000
2
# Box:   30.0000   30.0000   30.0000
H        14.931326866    14.397809982    13.869982719    -0.000000000    -0.000000000    -0.000000000
H        17.738670349    15.362191200    15.410017014     0.000000000     0.000000000     0.000000000
2
# Box:   30.0000   30.0000   30.0000
H        14.903031349    14.361218452    13.818694115    -0.000000000    -0.000000000    -0.000000000
H        17.766967773    15.398782730    15.461305618     0.000000000     0.000000000     0.000000000
2
# Box:   30.0000   30.0000   30.0000
H        14.878153801    14.325874329    13.769378662    -0.000000000    -0.000000000    -0.000000000
H        17.791845322    15.434126854    15.510621071     0.000000000     0.000000000     0.000000000
2
# Box:   30.0000   30.0000   30.0000
H        14.858835220    14.292648315    13.723390579    -0.000000000    -0.000000000    -0.000000000
H        17.811162949    15.467352867    15.556610107     0.000000000     0.000000000     0.000000000
2
# Box:   30.0000   30.0000   30.0000
H        14.845748901    14.261899948    13.681272507    -0.000000000    -0.000000000    -0.000000000
H        17.824249268    15.498100281    15.598727226     0.000000000     0.000000000     0.000000000
2
# Box:   30.0000   30.0000   30.0000
H        14.838928223    14.233755112    13.643184662    -0.000000000    -0.000000000    -0.000000000
H        17.831069946    15.526246071    15.636815071     0.000000000     0.000000000     0.000000000
2
# Box:   30.0000   30.0000   30.0000
H        14.838178635    14.208231926    13.609144211     0.000000000    -0.000000000    -0.000000000
H        17.831819534    15.551768303    15.670854568    -0.000000000     0.000000000     0.000000000
2
# Box:   30.0000   30.0000   30.0000
H        14.843248367    14.185318947    13.579113007     0.000000000    -0.000000000    -0.000000000
H        17.826749802    15.574682236    15.700885773    -0.000000000     0.000000000     0.000000000
2
# Box:   30.0000   30.0000   30.0000
H        14.853901863    14.165005684    13.553050995     0.000000000    -0.000000000    -0.000000000
H        17.816097260    15.594995499    15.726948738    -0.000000000     0.000000000     0.000000000
2
# Box:   30.0000   30.0000   30.0000
H        14.869949341    14.147294998    13.530944824     0.000000000    -0.000000000    -0.000000000
H        17.800048828    15.612706184    15.749054909    -0.000000000     0.000000000     0.000000000
2
# Box:   30.0000   30.0000   30.0000
H        14.891252518    14.132212639    13.512817383     0.000000000    -0.000000000    -0.000000000
H        17.778745651    15.627788544    15.767182350    -0.000000000     0.000000000     0.000000000
2
# Box:   30.0000   30.0000   30.0000
H        14.917732239    14.119813919    13.498734474     0.000000000    -0.000000000    -0.000000000
H        17.752265930    15.640187263    15.781265259    -0.000000000     0.000000000     0.000000000
2
# Box:   30.0000   30.0000   30.0000
H        14.949361801    14.110174179    13.488797188     0.000000000    -0.000000000    -0.000000000
H        17.720636368    15.649826050    15.791202545    -0.000000000     0.000000000     0.000000000
2
# Box:   30.0000   30.0000   30.0000
H        14.986166000    14.103410721    13.483160019     0.000000000    -0.000000000    -0.000000000
H        17.683832169    15.656590462    15.796840668    -0.000000000     0.000000000     0.000000000
2
# Box:   30.0000   30.0000   30.0000
H        15.028200150    14.099658966    13.482004166     0.000000000    -0.000000000     0.000000000
H        17.641798019    15.660342216    15.797995567    -0.000000000     0.000000000    -0.000000000
2
# Box:   30.0000   30.0000   30.0000
H        15.075520515    14.099064827    13.485538483     0.000000000     0.000000000     0.000000000
H        17.594478607    15.660935402    15.794460297    -0.000000000    -0.000000000    -0.000000000
2
# Box:   30.0000   30.0000   30.0000
H        15.128129959    14.101752281    13.493921280     0.000000000     0.000000000     0.000000000
H        17.541868210    15.658248901    15.786077499    -0.000000000    -0.000000000    -0.000000000
2
# Box:   30.0000   30.0000   30.0000
H        15.185843468    14.107730865    13.507150650     0.000000000     0.000000000     0.000000000
H        17.484153748    15.652270317    15.772849083    -0.000000000    -0.000000000    -0.000000000
2
# Box:   30.0000   30.0000   30.0000
H        15.248007774    14.116695404    13.524763107     0.000000000     0.000000000     0.000000000
H        17.421991348    15.643305779    15.755235672    -0.000000000    -0.000000000    -0.000000000
2
# Box:   30.0000   30.0000   30.0000
H        15.312946320    14.127593040    13.545203209     0.000000000     0.000000000     0.000000000
H        17.357051849    15.632408142    15.734796524    -0.000000000    -0.000000000    -0.000000000
2
# Box:   30.0000   30.0000   30.0000
H        15.377019882    14.137826920    13.564678192     0.000000000     0.000000000     0.000000000
H        17.292978287    15.622173309    15.715321541    -0.000000000    -0.000000000    -0.000000000
2
# Box:   30.0000   30.0000   30.0000
H        15.433825493    14.142374039    13.575920105     0.000000000    -0.000000000     0.000000000
H        17.236173630    15.617627144    15.704079628    -0.000000000     0.000000000    -0.000000000
2
# Box:   30.0000   30.0000   30.0000
H        15.475778580    14.134706497    13.569547653     0.000000000    -0.000000000    -0.000000000
H        17.194219589    15.625294685    15.710451126    -0.000000000     0.000000000     0.000000000
2
# Box:   30.0000   30.0000   30.0000
H        15.499786377    14.111475945    13.540826797     0.000000000    -0.000000000    -0.000000000
H        17.170211792    15.648525238    15.739172935    -0.000000000     0.000000000     0.000000000
2
# Box:   30.0000   30.0000   30.0000
H        15.510474205    14.076055527    13.494659424     0.000000000    -0.000000000    -0.000000000
H        17.159523010    15.683945656    15.785340309    -0.000000000     0.000000000     0.000000000
2
# Box:   30.0000   30.0000   30.0000
H        15.515357018    14.035036087    13.440512657     0.000000000    -0.000000000    -0.000000000
H        17.154640198    15.724964142    15.839487076    -0.000000000     0.000000000     0.000000000
2
# Box:   30.0000   30.0000   30.0000
H        15.519808769    13.993610382    13.385781288     0.000000000    -0.000000000    -0.000000000
H        17.150190353    15.766390800    15.894218445    -0.000000000     0.000000000     0.000000000
2
# Box:   30.0000   30.0000   30.0000
H        15.526453018    13.954582214    13.334442139     0.000000000    -0.000000000    -0.000000000
H        17.143545151    15.805418015    15.945557594    -0.000000000     0.000000000     0.000000000
2
# Box:   30.0000   30.0000   30.0000
H        15.536265373    13.919182777    13.288226128     0.000000000    -0.000000000    -0.000000000
H        17.133733749    15.840817451    15.991773605    -0.000000000     0.000000000     0.000000000
2
# Box:   30.0000   30.0000   30.0000
H        15.549460411    13.887854576    13.247737885     0.000000000    -0.000000000    -0.000000000
H        17.120536804    15.872145653    16.032260895    -0.000000000     0.000000000     0.000000000
2
# Box:   30.0000   30.0000   30.0000
H        15.565948486    13.860684395    13.213082314     0.000000000    -0.000000000    -0.000000000
H        17.104049683    15.899315834    16.066917419    -0.000000000     0.000000000     0.000000000
2
# Box:   30.0000   30.0000   30.0000
H        15.585540771    13.837625504    13.184181213     0.000000000    -0.000000000    -0.000000000
H        17.084457397    15.922374725    16.095817566    -0.000000000     0.000000000     0.000000000
2
# Box:   30.0000   30.0000   30.0000
H        15.608028412    13.818593979    13.160906792     0.000000000    -0.000000000    -0.000000000
H        17.061969757    15.941406250    16.119092941    -0.000000000     0.000000000     0.000000000
2
# Box:   30.0000   30.0000   30.0000
H        15.633224487    13.803516388    13.143139839     0.000000000    -0.000000000    -0.000000000
H        17.036773682    15.956483841    16.136859894    -0.000000000     0.000000000     0.000000000
2
# Box:   30.0000   30.0000   30.0000
H        15.660964966    13.792345047    13.130805969     0.000000000    -0.000000000    -0.000000000
H        17.009033203    15.967655182    16.149194717    -0.000000000     0.000000000     0.000000000
2
# Box:   30.0000   30.0000   30.0000
H        15.691123009    13.785074234    13.123882294     0.000000000    -0.000000000    -0.000000000
H        16.978876114    15.974926949    16.156118393    -0.000000000     0.000000000     0.000000000
2
# Box:   30.0000   30.0000   30.0000
H        15.723592758    13.781729698    13.122398376     0.000000000    -0.000000000     0.000000000
H        16.946405411    15.978270531    16.157600403    -0.000000000     0.000000000    -0.000000000
2
# Box:   30.0000   30.0000   30.0000
H        15.758293152    13.782390594    13.126449585     0.000000000     0.000000000     0.000000000
H        16.911705017    15.977610588    16.153549194    -0.000000000    -0.000000000    -0.000000000
2
# Box:   30.0000   30.0000   30.0000
H        15.795156479    13.787170410    13.136178970     0.000000000     0.000000000     0.000000000
H        16.874841690    15.972829819    16.143819809    -0.000000000    -0.000000000    -0.000000000
2
# Box:   30.0000   30.0000   30.0000
H        15.834123611    13.796214104    13.151778221     0.000000000     0.000000000     0.000000000
H        16.835874557    15.963787079    16.128221512    -0.000000000    -0.000000000    -0.000000000
2
# Box:   30.0000   30.0000   30.0000
H        15.875130653    13.809671402    13.173435211     0.000000000     0.000000000     0.000000000
H        16.794868469    15.950328827    16.106565475    -0.000000000    -0.000000000    -0.000000000
2
# Box:   30.0000   30.0000   30.0000
H        15.918073654    13.827642441    13.201275826     0.000000000     0.000000000     0.000000000
H        16.751924515    15.932358742    16.078723907    -0.000000000    -0.000000000    -0.000000000
2
# Box:   30.0000   30.0000   30.0000
H        15.962774277    13.850042343    13.235172272     0.000000000     0.000000000     0.000000000
H        16.707223892    15.909957886    16.044828415    -0.000000000    -0.000000000    -0.000000000
2
# Box:   30.0000   30.0000   30.0000
H        16.008878708    13.876312256    13.274344444     0.000000000     0.000000000     0.000000000
H        16.661119461    15.883688927    16.005655289    -0.000000000    -0.000000000    -0.000000000
2
# Box:   30.0000   30.0000   30.0000
H        16.055715561    13.904789925    13.316525459     0.000000000     0.000000000     0.000000000
H        16.614282608    15.855211258    15.963474274    -0.000000000    -0.000000000    -0.000000000
2
# Box:   30.0000   30.0000   30.0000
H        16.102128983    13.931670189    13.356543541     0.000000000     0.000000000     0.000000000
H        16.567869186    15.828330994    15.923456192    -0.000000000    -0.000000000    -0.000000000
2
# Box:   30.0000   30.0000   30.0000
H        16.146528244    13.950098038    13.385124207     0.000000000     0.000000000     0.000000000
H        16.523471832    15.809903145    15.894875526    -0.000000000    -0.000000000    -0.000000000
2
# Box:   30.0000   30.0000   30.0000
H        16.187644958    13.952092171    13.391533852     0.000000000    -0.000000000    -0.000000000
H        16.482355118    15.807909012    15.888465881    -0.000000000     0.000000000     0.000000000
2
# Box:   30.0000   30.0000   30.0000
H        16.225694656    13.934870720    13.372092247     0.000000000    -0.000000000    -0.000000000
H        16.444303513    15.825129509    15.907907486    -0.000000000     0.000000000     0.000000000
2
# Box:   30.0000   30.0000   30.0000
H        16.262088776    13.903839111    13.334115982     0.000000000    -0.000000000    -0.000000000
H        16.407911301    15.856161118    15.945883751    -0.000000000     0.000000000     0.000000000
2
# Box:   30.0000   30.0000   30.0000
H        16.298009872    13.867144585    13.288559914     0.000000000    -0.000000000    -0.000000000
H        16.371988297    15.892856598    15.991439819    -0.000000000     0.000000000     0.000000000
2
# Box:   30.0000   30.0000   30.0000
H        16.333911896    13.830610275    13.243213654     0.000000000    -0.000000000    -0.000000000
H        16.336086273    15.929389954    16.036785126    -0.000000000     0.000000000     0.000000000
2
# Box:   30.0000   30.0000   30.0000
H        16.369808197    13.797196388    13.202020645     0.000000000    -0.000000000    -0.000000000
H        16.300189972    15.962804794    16.077978134    -0.000000000     0.000000000     0.000000000
2
# Box:   30.0000   30.0000   30.0000
H        16.405561447    13.768120766    13.166589737     0.000000000    -0.000000000    -0.000000000
H        16.264436722    15.991879463    16.113410950    -0.000000000     0.000000000     0.000000000
2
# Box:   30.0000   30.0000   30.0000
H        16.441015244    13.743766785    13.137412071     0.000000000    -0.000000000    -0.000000000
H        16.228982925    16.016233444    16.142587662    -0.000000000     0.000000000     0.000000000
2
# Box:   30.0000   30.0000   30.0000
H        16.476026535    13.724147797    13.114500999     0.000000000    -0.000000000    -0.000000000
H        16.193971634    16.035852432    16.165498734    -0.000000000     0.000000000     0.000000000
2
# Box:   30.0000   30.0000   30.0000
H        16.510475159    13.709164619    13.097703934     0.000000000    -0.000000000    -0.000000000
H        16.159523010    16.050836563    16.182296753    -0.000000000     0.000000000     0.000000000
2
# Box:   30.0000   30.0000   30.0000
H        16.544248581    13.698675156    13.086830139     0.000000000    -0.000000000    -0.000000000
H        16.125749588    16.061325073    16.193168640    -0.000000000     0.000000000     0.000000000
2
# Box:   30.0000   30.0000   30.0000
H        16.577247620    13.692568779    13.081717491     0.000000000    -0.000000000    -0.000000000
H        16.092750549    16.067432404    16.198282242    -0.000000000     0.000000000     0.000000000
2
# Box:   30.0000   30.0000   30.0000
H        16.609371185    13.690758705    13.082244873     0.000000000     0.000000000     0.000000000
H        16.060626984    16.069242477    16.197755814    -0.000000000    -0.000000000    -0.000000000
2
# Box:   30.0000   30.0000   30.0000
H        16.640510559    13.693208694    13.088350296     0.000000000     0.000000000     0.000000000
H        16.029487610    16.066791534    16.191650391    -0.000000000    -0.000000000    -0.000000000
2
# Box:   30.0000   30.0000   30.0000
H        16.670553207    13.699922562    13.100032806     0.000000000     0.000000000     0.000000000
H        15.999445915    16.060077667    16.179965973    -0.000000000    -0.000000000    -0.000000000
