1
# Step: 0 Box:       inf    0.0000    0.0000 
H         0.360649872     0.000000000     0.000000000    -0.385341099    -0.424737014    -0.102276589
1
# Step: 1 Box:       inf    0.0000    0.0000 
H         0.351077000     0.000000000     0.000000000    -0.381632161    -0.424737014    -0.102276589
1
# Step: 2 Box:       inf    0.0000    0.0000 
H         0.341923712     0.000000000     0.000000000    -0.345423501    -0.424737014    -0.102276589
1
# Step: 3 Box:       inf    0.0000    0.0000 
H         0.333079630     0.000000000     0.000000000    -0.383296149    -0.424737014    -0.102276589
1
# Step: 4 Box:       inf    0.0000    0.0000 
H         0.323832074     0.000000000     0.000000000    -0.342780581    -0.424737014    -0.102276589
1
# Step: 5 Box:       inf    0.0000    0.0000 
H         0.315490874     0.000000000     0.000000000    -0.303159874    -0.424737014    -0.102276589
1
# Step: 6 Box:       inf    0.0000    0.0000 
H         0.308794661     0.000000000     0.000000000    -0.244903657    -0.424737014    -0.102276589
1
# Step: 7 Box:       inf    0.0000    0.0000 
H         0.302871402     0.000000000     0.000000000    -0.208712370    -0.424737014    -0.102276589
1
# Step: 8 Box:       inf    0.0000    0.0000 
H         0.297985011     0.000000000     0.000000000    -0.169826970    -0.424737014    -0.102276589
