1
# Step: 0 Box:       inf    0.0000    0.0000 
H         0.360649872     0.000000000     0.000000000     0.385341099     0.424737014     0.102276589
1
# Step: 1 Box:       inf    0.0000    0.0000 
H         0.371008132     0.000000000     0.000000000     0.433736823     0.424737014     0.102276589
1
# Step: 2 Box:       inf    0.0000    0.0000 
H         0.382521360     0.000000000     0.000000000     0.482192852     0.424737014     0.102276589
1
# Step: 3 Box:       inf    0.0000    0.0000 
H         0.395755613     0.000000000     0.000000000     0.575265523     0.424737014     0.102276589
1
# Step: 4 Box:       inf    0.0000    0.0000 
H         0.410757564     0.000000000     0.000000000     0.610889535     0.424737014     0.102276589
1
# Step: 5 Box:       inf    0.0000    0.0000 
H         0.426424424     0.000000000     0.000000000     0.652277511     0.424737014     0.102276589
1
# Step: 6 Box:       inf    0.0000    0.0000 
H         0.443088155     0.000000000     0.000000000     0.706383608     0.424737014     0.102276589
1
# Step: 7 Box:       inf    0.0000    0.0000 
H         0.460711810     0.000000000     0.000000000     0.706922544     0.424737014     0.102276589
1
# Step: 8 Box:       inf    0.0000    0.0000 
H         0.478953689     0.000000000     0.000000000     0.736220326     0.424737014     0.102276589
1
# Step: 9 Box:       inf    0.0000    0.0000 
H         0.497660518     0.000000000     0.000000000     0.752592335     0.424737014     0.102276589
1
# Step: 10 Box:       inf    0.0000    0.0000 
H         0.515891725     0.000000000     0.000000000     0.749750080     0.424737014     0.102276589
