2
# Box:    3.0000    3.0000    3.0000 
H         1.461176991     1.488000035     1.463999987     3.157041311     0.000000000     0.000000000
H         1.805822968     1.488000035     1.463999987    -3.157041311     0.000000000     0.000000000
2
# Box:    3.0000    3.0000    3.0000 
H         0.310734957     1.488000035     1.463999987     5.659535885     0.000000000     0.000000000
H         2.956269979     1.488000035     1.463999987    -5.659535885     0.000000000     0.000000000
2
# Box:    3.0000    3.0000    3.0000 
H         1.450190544     1.488000035     1.463999987    -2.808377981     0.000000000     0.000000000
H         1.816809535     1.488000035     1.463999987     2.808377981     0.000000000     0.000000000
2
# Box:    3.0000    3.0000    3.0000 
H         1.443450212     1.488000035     1.463999987    -2.043640614     0.000000000     0.000000000
H         1.823549628     1.488000035     1.463999987     2.043640614     0.000000000     0.000000000
2
# Box:    3.0000    3.0000    3.0000 
H         1.435799003     1.488000035     1.463999987    -0.438877404     0.000000000     0.000000000
H         1.831200957     1.488000035     1.463999987     0.438877404     0.000000000     0.000000000
2
# Box:    3.0000    3.0000    3.0000 
H         1.425341845     1.488000035     1.463999987    -1.331205726     0.000000000     0.000000000
H         1.841657996     1.488000035     1.463999987     1.331205726     0.000000000     0.000000000
2
# Box:    3.0000    3.0000    3.0000 
H         1.414027095     1.488000035     1.463999987    -0.531771004     0.000000000     0.000000000
H         1.852972865     1.488000035     1.463999987     0.531771004     0.000000000     0.000000000
2
# Box:    3.0000    3.0000    3.0000 
H         0.359585315     1.488000035     1.463999987     2.987239838     0.000000000     0.000000000
H         2.907418489     1.488000035     1.463999987    -2.987239838     0.000000000     0.000000000
2
# Box:    3.0000    3.0000    3.0000 
H         1.388144732     1.488000035     1.463999987    -0.088720813     0.000000000     0.000000000
H         1.878855109     1.488000035     1.463999987     0.088720813     0.000000000     0.000000000
2
# Box:    3.0000    3.0000    3.0000 
H         0.395852387     1.488000035     1.463999987     3.146350622     0.000000000     0.000000000
H         2.871151209     1.488000035     1.463999987    -3.146350622     0.000000000     0.000000000
2
# Box:    3.0000    3.0000    3.0000 
H         1.355520129     1.488000035     1.463999987    -0.285534114     0.000000000     0.000000000
H         1.911483407     1.488000035     1.463999987     0.285534114     0.000000000     0.000000000
2
# Box:    3.0000    3.0000    3.0000 
H         1.352801800     1.488000035     1.463999987    -0.415693104     0.000000000     0.000000000
H         1.914201617     1.488000035     1.463999987     0.415693104     0.000000000     0.000000000
2
# Box:    3.0000    3.0000    3.0000 
H         1.461176991     1.488000035     1.463999987     3.157041311     0.000000000     0.000000000
H         1.805822968     1.488000035     1.463999987    -3.157041311     0.000000000     0.000000000
2
# Box:    3.0000    3.0000    3.0000 
H         1.461176991     1.488000035     1.463999987     3.157041311     0.000000000     0.000000000
H         1.805822968     1.488000035     1.463999987    -3.157041311     0.000000000     0.000000000
2
# Box:    3.0000    3.0000    3.0000 
H         0.310734957     1.488000035     1.463999987     5.659535885     0.000000000     0.000000000
H         2.956269979     1.488000035     1.463999987    -5.659535885     0.000000000     0.000000000
2
# Box:    3.0000    3.0000    3.0000 
H         1.450190544     1.488000035     1.463999987    -2.808377981     0.000000000     0.000000000
H         1.816809535     1.488000035     1.463999987     2.808377981     0.000000000     0.000000000
2
# Box:    3.0000    3.0000    3.0000 
H         1.443450212     1.488000035     1.463999987    -2.043640614     0.000000000     0.000000000
H         1.823549628     1.488000035     1.463999987     2.043640614     0.000000000     0.000000000
2
# Box:    3.0000    3.0000    3.0000 
H         1.435799003     1.488000035     1.463999987    -0.438877404     0.000000000     0.000000000
H         1.831200957     1.488000035     1.463999987     0.438877404     0.000000000     0.000000000
2
# Box:    3.0000    3.0000    3.0000 
H         1.425341845     1.488000035     1.463999987    -1.331205726     0.000000000     0.000000000
H         1.841657996     1.488000035     1.463999987     1.331205726     0.000000000     0.000000000
2
# Box:    3.0000    3.0000    3.0000 
H         1.414027095     1.488000035     1.463999987    -0.531771004     0.000000000     0.000000000
H         1.852972865     1.488000035     1.463999987     0.531771004     0.000000000     0.000000000
2
# Box:    3.0000    3.0000    3.0000 
H         0.359585315     1.488000035     1.463999987     2.987239838     0.000000000     0.000000000
H         2.907418489     1.488000035     1.463999987    -2.987239838     0.000000000     0.000000000
2
# Box:    3.0000    3.0000    3.0000 
H         1.388144732     1.488000035     1.463999987    -0.088720813     0.000000000     0.000000000
H         1.878855109     1.488000035     1.463999987     0.088720813     0.000000000     0.000000000
2
# Box:    3.0000    3.0000    3.0000 
H         0.395852387     1.488000035     1.463999987     3.146350622     0.000000000     0.000000000
H         2.871151209     1.488000035     1.463999987    -3.146350622     0.000000000     0.000000000
2
# Box:    3.0000    3.0000    3.0000 
H         1.355520129     1.488000035     1.463999987    -0.285534114     0.000000000     0.000000000
H         1.911483407     1.488000035     1.463999987     0.285534114     0.000000000     0.000000000
2
# Box:    3.0000    3.0000    3.0000 
H         1.352801800     1.488000035     1.463999987    -0.415693104     0.000000000     0.000000000
H         1.914201617     1.488000035     1.463999987     0.415693104     0.000000000     0.000000000
2
# Box:    3.0000    3.0000    3.0000 
H         1.461176991     1.488000035     1.463999987     3.157041311     0.000000000     0.000000000
H         1.805822968     1.488000035     1.463999987    -3.157041311     0.000000000     0.000000000
