4
# Step: 0 Box:    8.0000    8.0000    8.0000 
H         3.295351733    -0.006695678     0.521577827     0.000289008    -0.000422845    -0.000553152
H         2.567724138     0.705482404     0.530241239    -0.000096558     0.000630049     0.000306229
H         1.950448091    -0.014435382     0.884751359     0.000502524     0.000885178     0.000336346
H         2.521569546    -0.785836542     0.742125788    -0.000694975    -0.001092382    -0.000089423
4
# Step: 1 Box:    8.0000    8.0000    8.0000 
H         3.306579261    -0.010042417     0.475677164     0.000189061    -0.000254208    -0.000197499
H         2.632022027     0.667684642     0.530472725     0.000538394    -0.000431132    -0.000275984
H         1.933710233     0.057604178     0.974524433     0.000295308    -0.000425078     0.000891383
H         2.462781878    -0.816731600     0.698021890    -0.001022764     0.001110418    -0.000417901
4
# Step: 2 Box:    8.0000    8.0000    8.0000 
H         3.354976760    -0.090475973     0.482255030     0.000169214    -0.000539447     0.000293404
H         2.597873288     0.633219638     0.503796796    -0.000368859    -0.000722861    -0.000318626
H         2.024215961     0.061983737     1.077370528     0.000734804     0.001158441     0.001474779
H         2.358027281    -0.706212600     0.615273859    -0.000535160     0.000103867    -0.001449557
4
# Step: 3 Box:    8.0000    8.0000    8.0000 
H         3.314139146    -0.099744441     0.537313916    -0.000390574     0.000011983     0.000587601
H         2.615456690     0.582013616     0.447412255     0.000245906     0.000194679    -0.000406764
H         2.153897517     0.097468596     1.180886173     0.001754441    -0.000958493    -0.000361203
H         2.251599827    -0.681222968     0.513083869    -0.001609774     0.000751831     0.000180366
4
# Step: 4 Box:    8.0000    8.0000    8.0000 
H         3.348713729    -0.091751989     0.548038110     0.001044879     0.000271046    -0.000581855
H         2.648367408     0.598025640     0.447567245     0.000585872    -0.000261083     0.000240221
H         2.288596023     0.059205479     1.167227598     0.000342482     0.000512483     0.000812935
H         2.049415911    -0.666964329     0.515863260    -0.001973234    -0.000522446    -0.000471301
